%nprocshared=8
%mem=4GB
%chk= 0.chk
# freq b3lyp/6-31g(d)

good luck!

0 1
O      1.211144    0.000000    0.000000
C      0.000000    0.000000    0.000000
C     -0.897710   -1.243258    0.001843
C     -2.309862   -0.733323   -0.351290
C     -2.566577   -0.750682   -1.864969
C     -2.319341    0.708602    0.232048
C     -0.896472    1.245153    0.001843
H     -0.870558   -1.660246    1.019223
H     -0.502037   -2.012919   -0.668605
H     -3.079883   -1.342675    0.135689
H     -3.556197   -0.342241   -2.100741
H     -1.823330   -0.156426   -2.411720
H     -2.521787   -1.772504   -2.259307
H     -2.529307    0.666435    1.308241
H     -3.094449    1.333709   -0.223619
H     -0.793581    1.731186   -0.977752
H     -0.550652    1.967959    0.747377


