%nprocshared=8
%mem=4GB
%chk= 0.chk
# freq b3lyp/6-31g(d)

good luck!

0 1
O      1.206849   -0.000000   -0.000000
C      0.000000    0.000000    0.000000
C     -1.057013   -1.110529   -0.033407
C     -2.150072   -0.004662   -0.113414
C     -1.060006    1.130357   -0.033407
C     -1.083090    2.024844    1.258186
C     -2.372926    2.868828    1.300006
C     -1.028144    1.147173    2.529786
C      0.144394    2.961608    1.280227
C     -0.944129    1.928132   -1.344262
H     -1.069601   -1.713386    0.882222
H     -0.973753   -1.791647   -0.887361
H     -2.706023    0.000621   -1.055013
H     -2.869924   -0.021889    0.707382
H     -3.271400    2.240842    1.281492
H     -2.432782    3.568824    0.459770
H     -2.404141    3.462116    2.221968
H     -0.104639    0.558584    2.574618
H     -1.053486    1.782857    3.422350
H     -1.877612    0.458520    2.600253
H      0.190314    3.496392    2.236513
H      1.074216    2.396106    1.159588
H      0.098777    3.715887    0.487922
H     -1.789525    2.613333   -1.470593
H     -0.017080    2.506177   -1.383610
H     -0.941680    1.250145   -2.205907


