19
-276237.198809486
O      1.204992   -0.000000    0.000000
C      0.000000    0.000000    0.000000
C     -1.001921   -1.170199    0.007953
C     -1.808067   -0.800660   -1.276289
C     -3.134224   -1.414131   -1.337652
N     -4.192500   -1.892117   -1.370374
C     -1.846994    0.785950   -1.246057
C     -1.018048    1.148746    0.007953
C     -1.835164    0.768839    1.267308
C     -1.825097   -0.805061    1.264781
H     -0.568214   -2.169793   -0.005603
H     -1.248643   -1.138163   -2.156333
H     -1.397677    1.186667   -2.159138
H     -2.870947    1.163590   -1.179698
H     -0.593429    2.152972    0.003725
H     -1.359732    1.162604    2.171060
H     -2.850111    1.176482    1.223131
H     -1.333011   -1.196834    2.160136
H     -2.831343   -1.232145    1.228611

