59
-586893.0618528974
C      1.164548    4.641760   -0.586178
C      0.452886    3.337225   -0.991848
C      1.404932    2.491507   -1.852501
C     -0.085179    2.606430    0.262219
C     -1.088559    3.486803    1.081205
C     -2.139322    2.532652    1.713349
C     -1.564395    1.128761    1.471924
C     -2.477449   -0.098217    1.604751
C     -3.186086   -0.142721    2.970607
C     -3.999130   -1.429067    3.165382
C     -3.134512   -2.677490    2.940012
C     -3.869971   -3.984351    3.284211
C     -2.932780   -5.196899    3.189182
C     -2.240351   -5.266605    1.821201
C     -1.544426   -3.943034    1.458733
C     -2.478522   -2.703008    1.518835
C     -3.532338   -2.806885    0.392868
C     -1.635725   -1.388251    1.382236
C     -0.790453   -1.306006    0.078199
C      0.000000    0.000000    0.000000
C     -0.853399    1.263866    0.078199
C     -1.858091    1.343295   -1.095080
O      1.218636   -0.000000    0.000000
H      2.031093    4.428053    0.053220
H      1.531494    5.173365   -1.472081
H      0.505659    5.324516   -0.039616
H     -0.410683    3.617849   -1.614462
H      2.274739    2.165371   -1.273525
H      1.761046    3.079601   -2.707576
H      0.928492    1.588716   -2.245317
H      0.781602    2.377440    0.896703
H     -1.577415    4.219590    0.427923
H     -0.561946    4.063280    1.848298
H     -2.299760    2.734586    2.777262
H     -3.114604    2.638738    1.221821
H     -0.750739    0.993566    2.204823
H     -3.256181   -0.037674    0.831982
H     -2.428583   -0.073908    3.766613
H     -3.834290    0.735189    3.083261
H     -4.414632   -1.453108    4.181836
H     -4.861978   -1.435738    2.484870
H     -2.292871   -2.605025    3.650425
H     -4.279564   -3.906681    4.300452
H     -4.733907   -4.123821    2.619475
H     -2.167768   -5.116499    3.975689
H     -3.484227   -6.125296    3.385682
H     -1.500724   -6.077542    1.813510
H     -2.978805   -5.523978    1.049976
H     -0.707004   -3.782457    2.154617
H     -1.102057   -4.033910    0.459246
H     -4.193205   -1.936221    0.350872
H     -3.048157   -2.900277   -0.585841
H     -4.170750   -3.686270    0.513539
H     -0.906139   -1.417384    2.208319
H     -0.064408   -2.120657    0.030986
H     -1.442470   -1.386839   -0.799969
H     -1.333475    1.380898   -2.054883
H     -2.470148    2.248299   -1.024653
H     -2.541634    0.491751   -1.129287

