59
-586891.1545023666
C      0.218487    4.171083   -1.692027
C      0.871461    3.175565   -0.716549
C      2.091539    3.839267   -0.052579
C     -0.064258    2.570363    0.369552
C     -1.163222    3.500583    0.970896
C     -2.305671    2.566138    1.477133
C     -1.748130    1.141758    1.296520
C     -2.695514   -0.063910    1.275281
C     -3.610660   -0.101068    2.512131
C     -4.460458   -1.376651    2.573871
C     -3.586117   -2.635496    2.484629
C     -4.382650   -3.933057    2.706599
C     -3.457878   -5.157754    2.756483
C     -2.560909   -5.235840    1.513552
C     -1.799687   -3.921346    1.268281
C     -2.715345   -2.668893    1.184101
C     -3.581859   -2.758933   -0.092849
C     -1.843992   -1.364923    1.183169
C     -0.801279   -1.303227    0.030145
C      0.000000    0.000000    0.000000
C     -0.842528    1.269434    0.030145
C     -1.650970    1.381867   -1.283690
O      1.219055    0.000000   -0.000000
H     -0.678289    3.773650   -2.176544
H     -0.061627    5.103865   -1.187533
H      0.929627    4.435306   -2.483946
H      1.253186    2.329208   -1.301538
H      2.773695    4.253835   -0.804663
H      2.653138    3.115249    0.548000
H      1.786737    4.663551    0.605959
H      0.599076    2.279158    1.193868
H     -1.550724    4.196236    0.220835
H     -0.755823    4.115764    1.780089
H     -3.215767    2.703673    0.879770
H     -2.579989    2.768502    2.517330
H     -1.055338    0.971093    2.138249
H     -3.340314    0.011480    0.388663
H     -4.256287    0.785980    2.523829
H     -2.986864   -0.042787    3.417524
H     -5.031065   -1.395911    3.512199
H     -5.205386   -1.372598    1.765977
H     -2.865791   -2.573395    3.318667
H     -4.945137   -3.850277    3.646441
H     -5.133797   -4.061217    1.914739
H     -2.824337   -5.087763    3.653159
H     -4.045222   -6.078911    2.862025
H     -3.172832   -5.482678    0.635506
H     -1.839865   -6.056592    1.619386
H     -1.080112   -3.772254    2.087688
H     -1.206857   -4.017632    0.350586
H     -4.213312   -1.877559   -0.237679
H     -4.245868   -3.627324   -0.072962
H     -2.953091   -2.863581   -0.984331
H     -1.257246   -1.402346    2.115931
H     -1.307330   -1.411058   -0.938210
H     -0.077293   -2.117567    0.109415
H     -0.975648    1.460301   -2.142021
H     -2.297544    0.517396   -1.455270
H     -2.289823    2.270343   -1.282231

