27
-339446.773784764
O      1.218543   -0.000000   -0.000000
C      0.000000    0.000000    0.000000
C     -0.767351   -1.315763    0.022065
C     -1.553823   -1.551309    1.340373
C     -2.845821   -0.771615    1.451894
C     -4.063174   -1.458997    1.533535
C     -5.278949   -0.781462    1.625699
C     -5.288485    0.611976    1.634119
C     -4.082332    1.307628    1.551281
C     -2.854564    0.639227    1.461057
C     -1.576243    1.444343    1.367012
C     -0.791992    1.309498    0.022065
C      0.129210    2.512346   -0.201454
H     -1.468160   -1.354925   -0.822189
H     -0.025687   -2.109390   -0.108466
H     -0.890252   -1.328633    2.188190
H     -1.780642   -2.620746    1.407664
H     -4.054834   -2.546832    1.527102
H     -6.209077   -1.339689    1.690225
H     -6.226227    1.156468    1.705499
H     -4.089870    2.395431    1.560099
H     -0.895042    1.193882    2.193397
H     -1.823950    2.503972    1.494050
H     -1.537500    1.262811   -0.784919
H      0.702165    2.404022   -1.126936
H     -0.457589    3.435684   -0.261155
H      0.850129    2.610089    0.616344

