31
-327857.6846514449
O      1.216432    0.000000   -0.000000
C      0.000000    0.000000    0.000000
C     -0.791387   -1.295926    0.016587
C     -1.879498   -1.294784   -1.074997
C     -1.285406   -1.474659   -2.478850
C     -2.687823    0.002832   -0.950786
N     -1.847791    1.198581   -1.079422
C     -2.691196    2.385781   -1.199883
C     -0.849510    1.291984    0.016587
C     -0.011563    2.594705   -0.018403
C      0.876673    2.739471    1.229993
C      0.792178    2.772047   -1.316507
H     -0.093125   -2.131904   -0.086301
H     -1.272891   -1.375261    1.003193
H     -2.565601   -2.129474   -0.877002
H     -2.079680   -1.520066   -3.233361
H     -0.626359   -0.640529   -2.739083
H     -0.706299   -2.402872   -2.543187
H     -3.238264    0.002386    0.014254
H     -3.441594    0.037679   -1.745568
H     -3.227028    2.636172   -0.263343
H     -2.106834    3.255857   -1.505144
H     -3.439536    2.205604   -1.977899
H     -1.384360    1.280468    0.995398
H     -0.736882    3.415854    0.039106
H      1.683368    2.003986    1.236241
H      1.323520    3.740371    1.253262
H      0.291814    2.619568    2.151222
H      1.596827    2.035465   -1.380041
H      0.154979    2.655436   -2.199571
H      1.241259    3.771954   -1.348956

