31
-327857.4468865875
O      1.217633    0.000000   -0.000000
C      0.000000    0.000000    0.000000
C     -0.821071   -1.273648   -0.010130
C     -1.888663   -1.291208    1.115977
C     -3.144614   -2.048609    0.667888
C     -2.214812    0.153521    1.547539
N     -2.188935    1.070582    0.400314
C     -2.910890    2.302396    0.706906
C     -0.792305    1.317559   -0.010130
C     -0.687077    2.016695   -1.403205
C      0.731750    2.534374   -1.681340
C     -1.206349    1.141194   -2.553118
H     -0.144258   -2.130479    0.045224
H     -1.335169   -1.311448   -0.980138
H     -1.461378   -1.806477    1.985737
H     -3.649856   -1.501144   -0.136653
H     -2.894263   -3.048429    0.293966
H     -3.852976   -2.168025    1.496474
H     -1.508202    0.488098    2.333910
H     -3.214224    0.184598    1.994838
H     -3.931403    2.053446    1.014618
H     -2.982316    2.944109   -0.174364
H     -2.439345    2.887905    1.520319
H     -0.287218    1.976388    0.724703
H     -1.337626    2.898032   -1.344456
H      0.748101    3.086539   -2.628443
H      1.455483    1.717479   -1.745666
H      1.070775    3.213187   -0.890033
H     -0.532603    0.298092   -2.751414
H     -2.201300    0.744147   -2.327874
H     -1.272096    1.726549   -3.477385

