31
-327859.1671331908
O      1.217887   -0.000000   -0.000000
C      0.000000    0.000000    0.000000
C     -0.813270   -1.287841    0.018526
C     -1.897305   -1.272617    1.120302
C     -2.824563   -2.488076    1.024062
C     -2.678298    0.054550    1.036420
N     -1.845547    1.260968    1.079863
C     -1.304460    1.546881    2.406980
C     -0.817620    1.302202    0.018526
C     -1.417091    1.645777   -1.375312
C     -2.183043    2.974329   -1.316457
C     -0.322041    1.689991   -2.452919
H     -0.125003   -2.132182    0.128914
H     -1.309887   -1.390078   -0.959841
H     -1.386558   -1.309139    2.093152
H     -3.373900   -2.489821    0.073495
H     -2.258631   -3.424916    1.083049
H     -3.561615   -2.490511    1.836033
H     -3.404041    0.118012    1.856343
H     -3.261115    0.066235    0.104674
H     -2.127506    1.575023    3.129724
H     -0.555222    0.822595    2.774170
H     -0.831726    2.534648    2.397961
H     -0.111918    2.101248    0.273386
H     -2.129920    0.856577   -1.653700
H     -2.942657    2.956950   -0.530754
H     -1.498303    3.806083   -1.104944
H     -2.671075    3.181217   -2.276105
H     -0.756050    1.946757   -3.425922
H      0.200285    0.733501   -2.560292
H      0.432722    2.448864   -2.212013

