%nprocshared=10
%mem=12GB
%chk= 0.chk
# freq b3lyp/6-31g(d)

good luck!

0 1
O      1.217280    0.000000    0.000000
C      0.000000    0.000000    0.000000
C     -0.811865   -1.288996    0.004913
C     -1.867749   -1.286680    1.128387
C     -2.729130   -0.021289    1.104498
O     -3.510994    0.016220   -0.125535
C     -4.701448   -0.634846   -0.123610
O     -5.138499   -1.243822    0.827707
C     -5.390756   -0.488042   -1.460443
C     -1.878443    1.254330    1.147032
C     -2.719381    2.542902    1.151195
C     -1.838081    3.798492    1.226248
C     -0.800424    3.824804    0.094202
C      0.050923    2.547639    0.080711
C     -0.822316    1.288518    0.004913
H     -1.323031   -1.371857   -0.964332
H     -0.125624   -2.135298    0.097409
H     -2.510962   -2.169574    1.058205
H     -1.368437   -1.336079    2.105031
H     -3.433917   -0.037560    1.940641
H     -5.550246    0.570691   -1.689351
H     -4.762637   -0.902532   -2.255964
H     -6.347328   -1.010777   -1.434515
H     -1.329446    1.209606    2.101640
H     -3.326025    2.573213    0.236482
H     -3.421922    2.519276    1.995273
H     -2.465922    4.697612    1.190510
H     -1.317635    3.819465    2.195125
H     -0.153042    4.704985    0.193884
H     -1.320219    3.928234   -0.869992
H      0.665386    2.498737    0.989782
H      0.755636    2.555915   -0.757688
H     -1.386978    1.296844   -0.942034


