%nprocshared=8
%mem=4GB
%chk= 0.chk
# freq b3lyp/6-31g(d)

good luck!

0 1
O      1.216622    0.000000    0.000000
C      0.000000    0.000000    0.000000
C     -0.817991   -1.285583   -0.000397
C     -1.931237   -1.261099    1.069921
C     -2.817541    0.000000    0.991316
C     -3.742985    0.000000   -0.236468
C     -1.931237    1.261099    1.069921
C     -0.817991    1.285583   -0.000397
H     -1.268053   -1.393954   -0.998386
H     -0.137634   -2.130124    0.143332
H     -1.462201   -1.302296    2.062430
H     -2.546777   -2.165070    0.979755
H     -3.464278    0.000000    1.880004
H     -4.389786   -0.885305   -0.236146
H     -3.190074    0.000000   -1.182861
H     -4.389786    0.885305   -0.236146
H     -1.462201    1.302296    2.062430
H     -2.546777    2.165070    0.979755
H     -1.268053    1.393954   -0.998386
H     -0.137634    2.130124    0.143332


