%nprocshared=8
%mem=4GB
%chk= 1.chk
# freq b3lyp/6-31g(d)

good luck!

0 1
O      1.216470    0.000000   -0.000000
C      0.000000    0.000000    0.000000
C     -0.819294   -1.284671    0.002783
C     -1.935411   -1.260212   -1.061372
C     -2.813668   -0.000000   -0.961887
C     -3.921202   -0.000000   -2.022106
C     -1.935411    1.260212   -1.061372
C     -0.819294    1.284671    0.002783
H     -0.140353   -2.131662   -0.132695
H     -1.277569   -1.382654    0.999321
H     -1.481513   -1.299737   -2.062456
H     -2.553195   -2.162004   -0.965554
H     -3.290994   -0.000000    0.031745
H     -4.560365    0.885925   -1.929800
H     -3.496035    0.000000   -3.033954
H     -4.560365   -0.885926   -1.929801
H     -1.481513    1.299737   -2.062456
H     -2.553196    2.162004   -0.965554
H     -0.140353    2.131662   -0.132696
H     -1.277569    1.382654    0.999321


