%nprocshared=10
%mem=12GB
%chk= 0.chk
# freq b3lyp/6-31g(d)

good luck!

0 1
O      1.220093   -0.000000   -0.000000
C      0.000000    0.000000    0.000000
C     -0.786565   -1.320147   -0.016029
C      0.134400   -2.537991   -0.304254
C      0.981063   -2.978779    0.901157
C     -0.670134   -3.718730   -0.871030
C     -1.636623   -1.486918    1.284282
C     -2.931240   -0.705404    1.300577
C     -4.155182   -1.385506    1.304439
C     -5.369319   -0.698514    1.310208
C     -5.369802    0.695255    1.310494
C     -4.156160    1.383145    1.305204
C     -2.931699    0.703942    1.300902
C     -1.637523    1.486259    1.284518
C     -0.787819    1.319614   -0.016029
C      0.130799    2.538850   -0.305765
C      0.982000    2.978551    0.896832
C     -0.677776    3.719771   -0.866288
H     -1.501994   -1.240359   -0.848198
H      0.834205   -2.210401   -1.082962
H      0.360151   -3.369777    1.716654
H      1.666247   -3.781650    0.604241
H      1.581221   -2.150266    1.285238
H     -0.002090   -4.548852   -1.128899
H     -1.216867   -3.435834   -1.778928
H     -1.400814   -4.105173   -0.148990
H     -1.875595   -2.549156    1.395676
H     -1.018061   -1.225601    2.153588
H     -4.154223   -2.473432    1.305712
H     -6.305804   -1.249833    1.315358
H     -6.306697    1.245870    1.315870
H     -4.156012    2.471068    1.306921
H     -1.018653    1.225273    2.153703
H     -1.876978    2.548402    1.395859
H     -1.503827    1.238564   -0.847583
H      0.827551    2.213623   -1.088192
H      1.664241    3.783476    0.598680
H      0.363953    3.366416    1.715999
H      1.585498    2.150335    1.276305
H     -1.405119    4.104145   -0.139803
H     -0.011982    4.551087   -1.126033
H     -1.228898    3.437973   -1.771834


