20
-219128.3125516632
O      1.213158   -0.000000    0.000000
C      0.000000    0.000000    0.000000
C     -0.889242   -1.251247   -0.021975
C     -0.260601   -2.430841   -0.760101
C     -2.231565   -0.716258   -0.552275
C     -2.326128    0.715193    0.024541
C     -0.881508    1.262467   -0.021975
C     -0.562958    2.100008   -1.273453
H     -1.025433   -1.523962    1.039215
H     -0.866589   -3.336769   -0.651249
H     -0.164394   -2.214061   -1.830557
H      0.742065   -2.631079   -0.370178
H     -3.084045   -1.342921   -0.270955
H     -2.203335   -0.683008   -1.650273
H     -3.032422    1.344879   -0.526951
H     -2.678299    0.669015    1.062848
H     -0.639340    1.865003    0.862356
H     -1.122483    3.041725   -1.259399
H      0.506633    2.327784   -1.313468
H     -0.829110    1.564859   -2.193003

