%nprocshared=10
%mem=12GB
%chk= 0.chk
# freq b3lyp/6-31g(d)

good luck!

0 1
O      1.215700   -0.000000    0.000000
C      0.000000    0.000000    0.000000
C     -0.845381   -1.272531    0.005128
C     -2.335593   -0.892431    0.071682
C     -2.583588   -0.072311    1.368198
C     -4.081908    0.141734    1.677674
C     -4.877485   -1.157277    1.865348
C     -1.698588    1.247195    1.321131
C     -2.457749    2.576017    1.537549
C     -1.552136    3.812071    1.617736
C     -0.859637    1.254349    0.005128
C     -1.783588    1.205391   -1.235854
C     -2.686714   -0.060622   -1.179238
H     -0.540859   -1.893536    0.857879
H     -0.613657   -1.851134   -0.899591
H     -2.939328   -1.805777    0.090618
H     -2.196709   -0.684173    2.196619
H     -4.167945    0.724497    2.602233
H     -4.559649    0.746980    0.896986
H     -4.408730   -1.804578    2.617280
H     -5.895975   -0.938743    2.205734
H     -4.962080   -1.733293    0.937822
H     -0.977121    1.183092    2.147770
H     -3.209598    2.728431    0.753065
H     -3.016480    2.504986    2.477879
H     -0.765561    3.679166    2.370907
H     -2.134520    4.696990    1.898383
H     -1.062757    4.033875    0.663622
H     -0.194903    2.120557   -0.031391
H     -1.170320    1.208789   -2.144334
H     -2.388348    2.117906   -1.274740
H     -2.543886   -0.676097   -2.075780
H     -3.746434    0.216876   -1.165381


