44
-638216.9051047683
C     -4.301958    4.869328   -0.141677
O     -2.884255    4.836284   -0.075839
C     -2.266753    3.629179   -0.065773
C     -2.918887    2.397583   -0.110182
C     -2.199233    1.194515   -0.091526
C     -2.915249   -0.149708   -0.172162
C     -3.264489   -0.515415   -1.627424
N     -2.159358   -1.235065    0.476581
C     -2.212544   -1.182891    1.944562
C     -1.825739   -2.500973    2.591857
C     -0.978953   -2.526615    3.705299
C     -0.664420   -3.732015    4.337141
C     -1.189973   -4.930688    3.855063
C     -2.029840   -4.916490    2.737902
C     -2.345282   -3.711294    2.112380
C     -0.783871   -1.316927   -0.022739
C     -0.800898    1.245449   -0.022739
C     -0.134783    2.486912    0.025626
C     -0.844196    3.674802    0.002129
O     -0.301756    4.922437    0.042219
C      1.112565    5.020058    0.114910
C      0.000000    0.000000    0.000000
O      1.224691   -0.000000   -0.000000
H     -4.572839    5.926250   -0.151059
H     -4.756830    4.384457    0.731861
H     -4.673227    4.389551   -1.056594
H     -4.002568    2.362982   -0.154867
H     -3.863762   -0.066039    0.373570
H     -3.768687   -1.486753   -1.655962
H     -3.928050    0.241840   -2.058519
H     -2.373014   -0.565251   -2.261150
H     -1.592305   -0.374048    2.370992
H     -3.250162   -0.946116    2.215493
H     -0.560286   -1.595023    4.080213
H     -0.002967   -3.733232    5.199702
H     -0.943663   -5.870689    4.341852
H     -2.439371   -5.847477    2.353874
H     -2.986452   -3.695160    1.235649
H     -0.226089   -2.060115    0.552884
H     -0.792089   -1.674922   -1.061696
H      0.947260    2.468390    0.077233
H      1.593120    4.564170   -0.760437
H      1.335395    6.088079    0.136999
H      1.502534    4.546183    1.025118

