%nprocshared=10
%mem=12GB
%chk= 0.chk
# freq b3lyp/6-31g(d)

good luck!

0 1
O      1.216726    0.000000    0.000000
C      0.000000    0.000000    0.000000
C     -0.851089   -1.263288    0.003283
C     -1.751317   -1.258862    1.265078
C     -1.743676   -1.255733   -1.260854
C     -2.633338    0.000468   -1.246716
C     -1.744275    1.257489   -1.259914
C     -0.851562    1.263499    0.003283
C     -1.735673    1.246600    1.276468
C     -2.665083   -0.000633    1.318449
C     -3.578903   -0.001027    2.621098
C     -2.744066    0.233981    3.902323
C     -4.319376   -1.348361    2.794265
C     -4.653251    1.110543    2.561006
C     -3.518126    0.009996    0.017461
H     -0.184593   -2.131996    0.011451
H     -1.119321   -1.313994    2.159786
H     -2.358129   -2.171596    1.248699
H     -2.361126   -2.164331   -1.274564
H     -1.122095   -1.276377   -2.165688
H     -3.279122    0.000654   -2.134710
H     -1.121865    1.280157   -2.164151
H     -2.363178    2.165099   -1.273210
H     -0.184743    2.131963    0.012473
H     -2.327408    2.170506    1.301986
H     -1.082410    1.264706    2.155818
H     -2.341477    1.250664    3.954340
H     -3.378656    0.092932    4.785244
H     -1.906481   -0.466351    3.991046
H     -5.039044   -1.269230    3.617674
H     -3.636445   -2.167678    3.041041
H     -4.882251   -1.634318    1.899044
H     -5.409599    0.915211    1.794028
H     -5.176278    1.168279    3.522922
H     -4.222221    2.098896    2.367497
H     -4.154575    0.902123   -0.008282
H     -4.189184   -0.858196   -0.004161


