%nprocshared=8
%mem=4GB
%chk= 0.chk
# freq b3lyp/6-31g(d)

good luck!

0 1
O      1.217171    0.000000    0.000000
C      0.000000    0.000000    0.000000
C     -0.823389   -1.291212   -0.007052
C      0.058351   -2.538355   -0.065047
C     -1.865396   -1.236239   -1.152328
C     -2.725060    0.034426   -1.105135
C     -1.854480    1.297623   -1.142296
C     -0.809641    1.291680   -0.007052
H     -1.389675   -1.291292    0.939958
H      0.639295   -2.561609   -0.993174
H      0.770936   -2.556672    0.764227
H     -0.554712   -3.445423   -0.019527
H     -2.498590   -2.131004   -1.102621
H     -1.334960   -1.283792   -2.114765
H     -3.432489    0.039653   -1.943700
H     -3.329598    0.033251   -0.186108
H     -1.333612    1.351961   -2.108367
H     -2.474387    2.199364   -1.070060
H     -0.116089    2.134299   -0.081990
H     -1.331209    1.370638    0.959052


