28
-316267.0883335434
O      1.219446    0.000000    0.000000
C      0.000000    0.000000    0.000000
C     -0.783180   -1.303112   -0.101964
C     -0.888754   -1.721550   -1.592067
C     -1.669176   -0.772423   -2.521773
C     -1.073532    0.645820   -2.675880
C     -1.367897    1.572119   -1.502175
C     -0.822339    1.254716   -0.101964
C     -0.272432    2.414008   -0.884626
C     -1.930292    1.547199    0.922656
C     -3.235993    1.670272    0.100018
C     -2.802681    2.101079   -1.321096
H     -1.788856   -1.201193    0.323591
H     -0.246810   -2.081855    0.450035
H     -1.362296   -2.710828   -1.628995
H      0.130923   -1.848074   -1.979089
H     -2.712797   -0.698873   -2.182358
H     -1.708791   -1.244077   -3.512447
H     -1.466240    1.106240   -3.592639
H      0.011601    0.563283   -2.821549
H      0.737738    2.302798   -1.271027
H     -0.519010    3.420815   -0.551537
H     -1.704157    2.476752    1.459235
H     -2.002600    0.761080    1.682719
H     -3.961516    2.354487    0.554598
H     -3.717565    0.685603    0.043298
H     -3.475535    1.696810   -2.085671
H     -2.825321    3.193393   -1.427743

