35
-423497.44273801934
O      1.217520    0.000000    0.000000
C      0.000000    0.000000    0.000000
C     -0.818117   -1.330928    0.012745
N     -0.008896   -2.534180    0.308371
C      0.939306   -2.949559   -0.731117
C      0.638540   -2.589370    1.620091
C     -1.504622   -1.545893   -1.357243
C     -2.483280   -2.543498   -1.486386
C     -3.106927   -2.787484   -2.708793
C     -2.758675   -2.044164   -3.838768
C     -1.768336   -1.069567   -3.733903
C     -1.145516   -0.828611   -2.506355
C     -1.910067   -1.159334    1.120874
C     -2.778733    0.092063    0.948952
C     -1.913708    1.352542    1.050993
C     -0.777793    1.319111    0.012745
H      0.451020   -2.969859   -1.706760
H      1.827538   -2.305475   -0.796092
H      1.267448   -3.971186   -0.504533
H     -0.091736   -2.521801    2.429951
H      1.122822   -3.567577    1.713232
H      1.408553   -1.816245    1.769543
H     -2.742448   -3.153811   -0.627563
H     -3.863311   -3.564924   -2.779543
H     -3.245664   -2.232677   -4.791718
H     -1.468106   -0.497497   -4.607836
H     -0.350526   -0.089942   -2.462761
H     -1.416005   -1.081434    2.095415
H     -2.517928   -2.068089    1.157197
H     -3.553206    0.102681    1.725962
H     -3.299513    0.067726   -0.016699
H     -2.515858    2.257813    0.908137
H     -1.484202    1.416654    2.060393
H     -0.051535    2.123245    0.167076
H     -1.215453    1.456099   -0.985110

