35
-423498.28737113054
O      1.215484    0.000000   -0.000000
C      0.000000    0.000000    0.000000
C     -0.842373   -1.316995   -0.026365
N      0.015769   -2.472819    0.319016
C      0.684414   -2.423922    1.616371
C     -0.612509   -3.776505    0.129712
C     -1.238026   -1.462900   -1.516699
C     -2.559790   -1.562514   -1.967187
C     -2.843577   -1.709282   -3.328459
C     -1.809794   -1.758276   -4.261614
C     -0.486140   -1.667814   -3.823108
C     -0.204274   -1.523184   -2.466696
C     -2.060250   -1.170983    0.941055
C     -2.821904    0.165023    0.898950
C     -1.869469    1.352263    1.060700
C     -0.782952    1.306956   -0.026365
H      1.437304   -3.220104    1.641405
H      1.203503   -1.475494    1.746330
H      0.008672   -2.589032    2.477164
H     -1.060152   -3.849540   -0.863626
H      0.160804   -4.549225    0.208972
H     -1.391102   -4.013094    0.879729
H     -3.385073   -1.544069   -1.264124
H     -3.877737   -1.789054   -3.653473
H     -2.031238   -1.870221   -5.319657
H      0.330092   -1.711629   -4.539507
H      0.823614   -1.468290   -2.123329
H     -1.673588   -1.298697    1.959787
H     -2.750199   -2.007114    0.778103
H     -3.576174    0.169437    1.696368
H     -3.366681    0.274228   -0.046572
H     -2.415313    2.301575    1.001727
H     -1.397897    1.321506    2.053084
H     -0.059269    2.121130    0.072951
H     -1.258942    1.400088   -1.012657

