20
-253091.27185358905
O      1.211116    0.000000    0.000000
C      0.000000    0.000000    0.000000
C     -0.899784   -1.252722    0.015735
C     -0.562073   -2.271262    1.131951
C     -1.842873   -2.310589    1.997504
C     -2.495983   -0.952919    1.724412
N     -2.267333   -0.764433    0.282482
C     -2.322621    0.632253   -0.189350
C     -0.914912    1.229158    0.015735
H     -0.843154   -1.705488   -0.985583
H      0.304471   -1.923167    1.704111
H     -0.304159   -3.253017    0.726431
H     -2.507097   -3.110960    1.654272
H     -1.635279   -2.473702    3.059568
H     -3.569428   -0.934968    1.943516
H     -2.016288   -0.170840    2.345197
H     -2.583613    0.634827   -1.255439
H     -3.109801    1.176321    0.340019
H     -0.607102    1.956890   -0.741326
H     -0.808691    1.717391    0.993156

