25
-278521.38764557015
O      1.215241   -0.000000    0.000000
C      0.000000    0.000000    0.000000
C     -0.824733   -1.276252   -0.034904
C     -2.073892   -1.211986    0.866665
C     -2.983877   -2.425254    0.650142
C     -2.816263    0.110980    0.627070
N     -1.935465    1.245821    0.884723
C     -2.618259    2.529305    1.057915
C     -3.359771    3.100762   -0.163460
C     -0.802117    1.299895   -0.034904
H     -1.153068   -1.409429   -1.079650
H     -0.175342   -2.122420    0.210826
H     -1.737562   -1.201827    1.912125
H     -3.847209   -2.399663    1.325589
H     -2.443135   -3.360552    0.834119
H     -3.363640   -2.457546   -0.379189
H     -3.669883    0.181358    1.312154
H     -3.229653    0.113133   -0.403491
H     -3.327557    2.408262    1.886941
H     -1.865556    3.253581    1.395369
H     -3.823089    4.059536    0.096505
H     -2.682543    3.280024   -1.006043
H     -4.155578    2.430091   -0.506404
H     -0.132891    2.118043    0.247250
H     -1.104657    1.466661   -1.092281

