25
-278522.0803559264
O      1.215284   -0.000000    0.000000
C      0.000000    0.000000    0.000000
C     -0.825164   -1.273953   -0.035152
C     -2.078165   -1.191176    0.857400
C     -2.997276   -2.398926    0.647932
C     -2.810598    0.132537    0.601588
N     -1.943718    1.279468    0.871354
C     -2.684660    2.544441    0.860838
C     -1.906532    3.713596    1.467144
C     -0.794821    1.304333   -0.035152
H     -0.181283   -2.120699    0.222554
H     -1.146753   -1.413916   -1.080910
H     -1.748861   -1.174006    1.905168
H     -3.862996   -2.360617    1.319600
H     -2.464421   -3.336627    0.842179
H     -3.372911   -2.436955   -0.382660
H     -3.201570    0.143940   -0.439525
H     -3.679134    0.200946    1.266964
H     -3.016745    2.807035   -0.164655
H     -3.594503    2.386177    1.452168
H     -2.557406    4.591333    1.547379
H     -1.548406    3.454215    2.468916
H     -1.043121    4.003776    0.859649
H     -1.108179    1.473435   -1.091405
H     -0.109344    2.109208    0.235614

