40
-401864.1492321831
O      1.217289   -0.000000    0.000000
C      0.000000    0.000000    0.000000
C     -0.882400   -1.249276    0.019064
C     -0.141261   -2.624362   -0.020057
C      0.763213   -2.758704    1.224958
C     -1.180116   -3.766309    0.031988
C      0.712303   -2.786529   -1.294905
C     -1.986993   -1.052436   -1.049776
C     -2.692628    0.300985   -0.917576
N     -1.736497    1.398246   -1.068785
C     -2.322416    2.751334   -1.324887
C     -3.134691    2.696206   -2.635934
C     -1.177390    3.762572   -1.541219
C     -3.229881    3.243841   -0.174691
C     -0.756918    1.333863    0.019064
H     -1.399413   -1.195042    0.994649
H      1.543401   -1.995763    1.236829
H      0.175951   -2.670132    2.148726
H      1.245056   -3.743990    1.235976
H     -1.784342   -3.824942   -0.879619
H     -1.862273   -3.652606    0.884813
H     -0.669008   -4.729625    0.144726
H      0.100915   -2.725911   -2.203156
H      1.197915   -3.770097   -1.295964
H      1.490717   -2.022167   -1.350278
H     -2.736230   -1.845063   -0.956133
H     -1.554865   -1.122941   -2.054610
H     -3.453345    0.370801   -1.697117
H     -3.222628    0.338779    0.056397
H     -2.531900    2.258681   -3.438778
H     -4.057569    2.115948   -2.540193
H     -3.425823    3.708847   -2.934359
H     -0.648781    4.008452   -0.615198
H     -1.583729    4.699860   -1.935098
H     -0.451334    3.371848   -2.262236
H     -3.617641    4.245233   -0.394363
H     -2.682055    3.304590    0.772706
H     -4.090567    2.581970   -0.027333
H     -1.220688    1.445637    1.023562
H     -0.001049    2.109657   -0.089685

