40
-401862.26430020423
O      1.217045   -0.000000    0.000000
C      0.000000    0.000000    0.000000
C     -0.904266   -1.230464   -0.040995
C     -0.198130   -2.612791   -0.189442
C     -1.259650   -3.734785   -0.172036
C      0.611342   -2.709269   -1.498661
C      0.740441   -2.840768    1.016350
C     -1.955206   -0.873034   -1.124730
C     -2.845314    0.316948   -0.695738
N     -2.165759    1.176196    0.283145
C     -2.889624    2.422291    0.669118
C     -4.350914    2.069335    1.011900
C     -2.872939    3.494633   -0.445447
C     -2.245514    2.999911    1.947178
C     -0.754834    1.336385   -0.040995
H     -1.436013   -1.232987    0.923792
H     -0.767022   -4.713948   -0.145221
H     -1.901910   -3.721453   -1.059377
H     -1.903803   -3.664143    0.713919
H      1.398032   -1.951353   -1.534439
H      1.085541   -3.695307   -1.575658
H     -0.029464   -2.587572   -2.380613
H      1.195910   -3.836874    0.956381
H      0.183856   -2.789588    1.961496
H      1.538962   -2.097626    1.046024
H     -1.437334   -0.638884   -2.062820
H     -2.599590   -1.729600   -1.338139
H     -3.162706    0.865615   -1.602176
H     -3.754008   -0.074399   -0.229168
H     -4.927660    1.769211    0.131631
H     -4.848368    2.944541    1.442505
H     -4.390804    1.257872    1.747177
H     -1.851744    3.816689   -0.678166
H     -3.435139    4.382344   -0.133617
H     -3.330118    3.123394   -1.369701
H     -2.176245    2.227779    2.720671
H     -1.243140    3.403363    1.772486
H     -2.856348    3.823300    2.332737
H     -0.561359    1.782556   -1.038377
H     -0.264240    1.989936    0.682214

