22
-253852.0457802189
O      1.215133    0.000000    0.000000
C      0.000000    0.000000    0.000000
C     -0.826390   -1.274344    0.035776
C     -2.079188   -1.199018   -0.859066
C     -2.993729   -2.409772   -0.646927
C     -2.816962    0.122756   -0.608596
N     -1.947283    1.267461   -0.867711
C     -2.670737    2.530187   -0.843904
C     -0.798557    1.301420    0.035776
H     -0.181356   -2.121155   -0.218588
H     -1.149332   -1.411873    1.081460
H     -1.748399   -1.184074   -1.906329
H     -2.458085   -3.345923   -0.840817
H     -3.368223   -2.447814    0.384072
H     -3.860276   -2.374990   -1.317736
H     -3.217962    0.134878    0.428914
H     -3.679143    0.194178   -1.282354
H     -1.992889    3.347641   -1.112462
H     -3.481764    2.504214   -1.579530
H     -3.110096    2.762104    0.146642
H     -1.106269    1.471925    1.093326
H     -0.127962    2.118574   -0.244933

