38
-508348.0823197074
C     -3.256940   -2.137911    0.116483
C     -2.360655   -0.900398    0.084481
C     -0.837435   -1.288365    0.009067
C     -0.334987   -2.237918    1.106630
C      0.000000    0.000000    0.000000
O      1.213051   -0.000000   -0.000000
C     -2.510019    0.011479    1.307406
C     -1.700023    1.162433    1.274180
C     -1.714320    2.059682    2.340649
C     -2.551520    1.825577    3.436128
C     -3.362135    0.692538    3.467114
C     -3.339058   -0.217172    2.404413
C     -0.843860    1.305230    0.009067
C      0.050692    2.537112   -0.031504
C     -1.790138    1.144344   -1.185359
C     -2.601227   -0.004526   -1.137780
C     -3.501960   -0.255912   -2.171442
C     -3.597891    0.631807   -3.248491
C     -2.788982    1.765442   -3.295911
C     -1.879011    2.020967   -2.265222
H     -4.316857   -1.861272    0.111835
H     -3.070023   -2.774945   -0.755037
H     -3.072560   -2.738575    1.011565
H     -0.663960   -1.768030   -0.964637
H     -0.589085   -1.863872    2.104257
H     -0.761783   -3.239140    0.994161
H      0.753518   -2.318777    1.038925
H     -1.086223    2.944730    2.322672
H     -2.568146    2.531650    4.261974
H     -4.013312    0.510713    4.317907
H     -3.971389   -1.098985    2.441497
H     -0.542370    3.457473   -0.024723
H      0.727037    2.547679    0.827187
H      0.674496    2.528219   -0.929371
H     -4.133468   -1.138645   -2.149678
H     -4.305066    0.432392   -4.049184
H     -2.863016    2.454664   -4.132766
H     -1.251359    2.905520   -2.308022

