59
-649156.9798597137
C     -6.114136    8.245047   -0.773544
C     -5.174727    7.543686   -1.772561
C     -5.338124    8.194373   -3.158208
C     -5.375301    6.002303   -1.713131
C     -6.484138    5.390213   -2.623962
C     -6.085830    3.898036   -2.848251
C     -4.849832    3.697717   -1.950280
C     -3.913267    2.505908   -2.190144
C     -4.677724    1.170433   -2.184007
C     -3.748060   -0.044766   -2.278527
C     -2.668969   -0.006754   -1.186667
C     -1.817206    1.305265   -1.233974
C     -0.968159    1.399025   -2.522353
C     -2.802604    2.516622   -1.095514
C     -2.106020    3.894744   -0.985814
C     -3.092361    5.073207   -0.841029
C     -4.142884    5.079278   -1.964453
C     -3.467513    5.390831   -3.317652
C     -1.808672   -1.281963   -1.183237
C     -0.816618   -1.290758   -0.017073
F      0.016918   -2.389602   -0.106033
C      0.000000    0.000000    0.000000
O      1.212953   -0.000000    0.000000
C     -0.842859    1.267155   -0.017073
H     -5.937992    7.900986    0.252430
H     -7.166112    8.046236   -1.016066
H     -5.971750    9.332279   -0.791803
H     -4.145533    7.742623   -1.436943
H     -4.728121    7.716923   -3.929658
H     -6.382117    8.165384   -3.492420
H     -5.044238    9.249848   -3.110780
H     -5.668423    5.785753   -0.674801
H     -6.545762    5.914023   -3.582311
H     -7.471613    5.481306   -2.158960
H     -6.897961    3.209569   -2.593173
H     -5.838461    3.714648   -3.901501
H     -5.231928    3.575607   -0.922170
H     -3.443909    2.618088   -3.177925
H     -5.263330    1.101191   -1.254040
H     -5.402913    1.151814   -3.006820
H     -3.278643   -0.085906   -3.270768
H     -4.331524   -0.969753   -2.179698
H     -3.203295    0.018877   -0.221411
H     -1.580894    1.412746   -3.427951
H     -0.270084    0.560406   -2.610766
H     -0.359778    2.308741   -2.520064
H     -3.329210    2.359819   -0.137671
H     -1.469304    4.064814   -1.861712
H     -1.433274    3.899023   -0.120550
H     -2.527217    6.015019   -0.816636
H     -3.608534    4.993692    0.127269
H     -2.701019    4.655737   -3.578818
H     -4.184131    5.414415   -4.144571
H     -2.973314    6.368163   -3.280260
H     -2.448663   -2.169360   -1.109198
H     -1.241216   -1.380692   -2.116337
H     -1.366419   -1.357730    0.935174
H     -0.152712    2.114352   -0.016375
H     -1.431851    1.310437    0.912077

