59
-649158.8819178547
C     -4.195103    8.234957   -1.181582
C     -5.294645    7.535109   -1.997298
C     -6.642666    8.227565   -1.719678
C     -5.402547    6.013974   -1.732849
C     -6.522337    5.340441   -2.595195
C     -6.080140    3.874365   -2.856935
C     -4.851221    3.697956   -1.951973
C     -3.911769    2.506888   -2.189643
C     -4.676284    1.171082   -2.186654
C     -3.745678   -0.043473   -2.281753
C     -2.668257   -0.006776   -1.188328
C     -1.815820    1.304457   -1.235589
C     -0.965130    1.397360   -2.522863
C     -2.800793    2.515908   -1.099093
C     -2.109640    3.894618   -1.007265
C     -3.095177    5.072194   -0.852256
C     -4.158075    5.091505   -1.969160
C     -3.505685    5.415086   -3.331806
C     -1.808794   -1.282460   -1.183392
C     -0.816559   -1.290924   -0.017299
F      0.017005   -2.389751   -0.106491
C      0.000000    0.000000    0.000000
O      1.212992   -0.000000   -0.000000
C     -0.843240    1.266903   -0.017299
H     -3.191003    7.904371   -1.461572
H     -4.236289    9.319939   -1.336068
H     -4.321058    8.050509   -0.106891
H     -5.066513    7.678650   -3.063987
H     -7.451977    7.825666   -2.337279
H     -6.574091    9.303037   -1.921632
H     -6.933484    8.107101   -0.667487
H     -5.675353    5.895669   -0.671645
H     -6.654026    5.881621   -3.540016
H     -7.487922    5.381535   -2.081336
H     -6.873349    3.155028   -2.628985
H     -5.813196    3.724646   -3.910752
H     -5.238150    3.578652   -0.924888
H     -3.442960    2.621036   -3.177677
H     -5.400223    1.152151   -3.010344
H     -5.262859    1.100194   -1.257408
H     -4.328991   -0.968865   -2.185897
H     -3.274511   -0.082330   -3.273262
H     -3.203904    0.019727   -0.223811
H     -1.577047    1.418718   -3.428908
H     -0.272659    0.554396   -2.614023
H     -0.350767    2.303001   -2.516409
H     -3.323257    2.364676   -0.138087
H     -1.421909    3.908944   -0.153771
H     -1.489290    4.062567   -1.895650
H     -2.520493    6.004190   -0.822176
H     -3.604916    4.990396    0.119203
H     -4.241549    5.458506   -4.141557
H     -3.004585    6.388837   -3.296133
H     -2.751878    4.677195   -3.620788
H     -2.449368   -2.169358   -1.108413
H     -1.241393   -1.382759   -2.116350
H     -1.366113   -1.358036    0.935062
H     -1.433662    1.309432    0.910943
H     -0.153796    2.114719   -0.015395

