27
-339451.11250641145
O      1.218538    0.000000    0.000000
C      0.000000    0.000000    0.000000
C     -0.892872   -1.258705    0.005673
C     -0.383516   -2.350139   -0.963944
C     -0.374676   -1.898854   -2.432892
C     -1.159484   -3.663001   -0.787801
C     -2.339667   -0.731155   -0.194369
C     -2.223873    0.777393   -0.088581
C     -3.237025    1.737315   -0.093578
C     -2.886625    3.086712   -0.007629
C     -1.543126    3.486354    0.080508
C     -0.529909    2.532329    0.086320
C     -0.888863    1.183794    0.005673
H     -0.806955   -1.667761    1.023695
H      0.660701   -2.525801   -0.673230
H     -1.386006   -1.701505   -2.809950
H      0.059457   -2.680499   -3.066871
H      0.223986   -0.992038   -2.569335
H     -1.125098   -4.013550    0.250892
H     -2.214827   -3.547194   -1.066406
H     -0.738442   -4.452300   -1.421603
H     -2.740585   -1.012579   -1.176379
H     -3.036289   -1.136805    0.548665
H     -4.282414    1.446242   -0.164439
H     -3.667857    3.842657   -0.009682
H     -1.300209    4.543338    0.145885
H      0.518426    2.809119    0.154760

