39
-595883.0440478836
Si    -3.683016    2.012128   -0.214522
C     -5.436910    1.310361   -0.059049
C     -3.502016    3.405512    1.060359
C     -2.331738    0.718995    0.227112
C     -2.317275   -0.734516   -0.380909
C     -3.398199   -1.637436    0.229919
C     -2.456141   -0.729563   -1.915641
C     -0.900752   -1.232135    0.003306
C      0.000000    0.000000    0.000000
O      1.211919    0.000000    0.000000
C     -0.892916    1.244566    0.003306
C     -3.451746    2.749193   -1.947526
C     -2.448022    3.704057   -2.203357
C     -2.271120    4.258848   -3.472148
C     -3.104829    3.875556   -4.523693
C     -4.114590    2.939399   -4.296051
C     -4.281883    2.387257   -3.024856
H     -5.663055    0.536100   -0.800107
H     -5.592057    0.869621    0.932812
H     -6.175541    2.111587   -0.182812
H     -3.642237    3.023781    2.079344
H     -2.516585    3.883915    1.023142
H     -4.252861    4.186379    0.892145
H     -2.452477    0.583431    1.315573
H     -3.329308   -1.653183    1.324838
H     -3.287511   -2.669679   -0.124755
H     -4.406101   -1.304499   -0.038178
H     -3.439850   -0.365557   -2.229997
H     -1.703707   -0.096158   -2.399050
H     -2.336117   -1.745445   -2.311693
H     -0.899698   -1.629839    1.029786
H     -0.499760   -2.019066   -0.644327
H     -0.547370    1.959105    0.757753
H     -0.773084    1.736476   -0.972062
H     -1.793902    4.032133   -1.398431
H     -1.486073    4.992332   -3.638048
H     -2.971483    4.306837   -5.512457
H     -4.773413    2.640364   -5.107552
H     -5.080194    1.664236   -2.873657

