36
-494494.37284823135
O      1.215777    0.000000    0.000000
C      0.000000    0.000000    0.000000
C     -0.849023   -1.268270    0.001810
C     -1.732861   -1.262629    1.273371
C     -1.750954   -1.257564   -1.255511
C     -2.640196    0.000000   -1.235307
C     -1.750954    1.257565   -1.255510
C     -0.849023    1.268270    0.001810
C     -1.732861    1.262628    1.273371
C     -2.643322   -0.000001    1.315357
C     -3.474422   -0.000001    2.603880
C     -4.877417    0.000004    2.601101
C     -5.609566    0.000002    3.786327
C     -4.948202   -0.000004    5.022072
C     -5.695408   -0.000004    6.245380
N     -6.302298   -0.000005    7.238040
C     -3.543553   -0.000009    5.046371
C     -2.829674   -0.000008    3.854898
C     -3.515534   -0.000001    0.034472
H     -0.179912   -2.134580    0.003452
H     -2.355685   -2.166797    1.291193
H     -1.095030   -1.301828    2.164210
H     -1.135025   -1.275653   -2.163801
H     -2.368698   -2.165645   -1.268298
H     -3.292899    0.000000   -2.117480
H     -1.135026    1.275654   -2.163801
H     -2.368699    2.165645   -1.268297
H     -0.179912    2.134580    0.003452
H     -1.095030    1.301828    2.164210
H     -2.355686    2.166796    1.291193
H     -5.422436    0.000007    1.664470
H     -6.694605    0.000006    3.757833
H     -3.022389   -0.000015    5.998416
H     -1.745015   -0.000013    3.905610
H     -4.168303    0.883078    0.026414
H     -4.168303   -0.883080    0.026413

