%nprocshared=8
%mem=8GB
%chk= 0.chk
# freq b3lyp/6-31g(d)

good luck!

0 1
O      1.218481   -0.000000    0.000000
C      0.000000    0.000000    0.000000
C     -0.874595   -1.263309   -0.028092
C     -0.130872   -2.623435    0.170792
C     -1.168259   -3.765949    0.245007
C      0.629575   -2.598563    1.515384
C      0.858809   -2.924711   -0.973684
C     -1.763723   -1.168602   -1.303748
C     -2.594909    0.122872   -1.341515
C     -1.706328    1.369509   -1.262339
C     -0.782618    1.310174   -0.028092
H     -1.564367   -1.155238    0.826489
H     -1.932407   -3.567943    1.008058
H     -0.669740   -4.704811    0.513407
H     -1.678586   -3.933474   -0.709481
H      1.094821   -3.573739    1.703686
H      1.414985   -1.840447    1.518258
H     -0.053808   -2.394231    2.350506
H      1.354227   -3.886976   -0.794660
H      1.627009   -2.151710   -1.044407
H      0.348476   -2.998973   -1.941494
H     -2.432007   -2.034030   -1.348974
H     -1.127166   -1.215750   -2.197476
H     -3.198955    0.147734   -2.257230
H     -3.303114    0.123724   -0.499871
H     -1.087295    1.435548   -2.167709
H     -2.313989    2.281918   -1.229887
H     -0.066495    2.136798   -0.014557
H     -1.395244    1.372662    0.883313


