23
-243799.10321581128
O      1.213635    0.000000    0.000000
C      0.000000    0.000000    0.000000
C     -0.878152   -1.271399   -0.010152
C     -0.442128   -2.239928    1.097570
C     -0.700075   -1.940653   -1.392152
C     -2.310157   -0.709752    0.167135
C     -2.266669    0.716402   -0.424123
C     -0.885105    1.254109   -0.010152
C     -0.301888    2.404216   -0.829570
H      0.614165   -2.502524    0.979111
H     -0.569452   -1.793920    2.091098
H     -1.035759   -3.161312    1.063227
H      0.352822   -2.187932   -1.561763
H     -1.288429   -2.864666   -1.440701
H     -1.029058   -1.290129   -2.210964
H     -3.070179   -1.341867   -0.305193
H     -2.555492   -0.654851    1.236315
H     -2.335195    0.679897   -1.519772
H     -3.091629    1.344197   -0.072065
H     -0.941345    1.565434    1.047390
H     -0.280734    2.151803   -1.896426
H     -0.894695    3.317593   -0.710165
H      0.725716    2.610097   -0.514600

