23
-277758.917579594
O      1.211273    0.000000    0.000000
C      0.000000    0.000000    0.000000
C     -0.948093   -1.195116   -0.026713
C     -1.527663   -1.221048   -1.464260
N     -2.287706    0.000000   -1.730127
C     -2.894031    0.000000   -3.051473
C     -1.527663    1.221048   -1.464260
C     -0.948093    1.195117   -0.026713
C     -2.022954    0.784277    1.005445
C     -2.022954   -0.784277    1.005445
H     -0.438005   -2.137163    0.189414
H     -2.208369   -2.075278   -1.571575
H     -0.698528   -1.370123   -2.185012
H     -3.526891   -0.886879   -3.166836
H     -3.526890    0.886880   -3.166836
H     -2.152355   -0.000000   -3.873831
H     -2.208368    2.075278   -1.571575
H     -0.698528    1.370123   -2.185012
H     -0.438005    2.137163    0.189414
H     -1.760273    1.172001    1.995548
H     -3.005395    1.184688    0.739990
H     -3.005395   -1.184688    0.739990
H     -1.760273   -1.172001    1.995548

