31
-327860.25605055364
O      1.217218    0.000000   -0.000000
C      0.000000    0.000000    0.000000
C     -0.832512   -1.278456   -0.010831
C      0.024538   -2.531428   -0.186954
C     -1.940323   -1.163081   -1.086497
N     -2.762488    0.033028   -0.885594
C     -4.082378    0.040776   -1.591732
C     -4.896505   -1.192899   -1.146374
C     -3.945151    0.037577   -3.131497
C     -4.878771    1.287609   -1.150987
C     -1.930419    1.223437   -1.077435
C     -0.820315    1.278392   -0.010831
H     -1.351351   -1.312773    0.959719
H      0.530497   -2.528602   -1.158562
H      0.800479   -2.581274    0.581398
H     -0.590941   -3.435787   -0.121518
H     -1.459504   -1.178793   -2.084956
H     -2.562787   -2.056539   -1.020176
H     -4.509636   -2.129954   -1.558149
H     -4.905256   -1.270940   -0.053812
H     -5.930699   -1.097848   -1.493292
H     -3.416812   -0.854542   -3.486105
H     -4.933019    0.046656   -3.606595
H     -3.399784    0.918658   -3.488094
H     -4.883652    1.372120   -0.058837
H     -5.915126    1.204183   -1.494342
H     -4.480698    2.217000   -1.569546
H     -2.539319    2.123776   -0.987295
H     -1.460627    1.248872   -2.080003
H     -1.292439    1.392410    0.974634
H     -0.151546    2.128574   -0.176007

