%nprocshared=10
%mem=12GB
%chk= 0.chk
# freq b3lyp/6-31g(d)

good luck!

0 1
O      1.216997   -0.000000    0.000000
C      0.000000    0.000000    0.000000
C     -0.817456   -1.282787   -0.002791
C     -1.972758   -1.253434   -1.026742
C     -2.875982    0.005898   -0.932951
C     -3.639013   -0.010906    0.411541
C     -3.870224    0.038549   -2.148941
C     -4.803498   -1.194193   -2.239142
C     -5.751998   -1.159133   -3.455754
C     -6.565374    0.142992   -3.500549
C     -7.584311    0.181980   -2.338959
C     -7.313915    0.426523   -4.822572
C     -7.476059    1.976151   -4.864358
C     -6.432039    2.549588   -3.855698
C     -5.567226    1.330452   -3.484537
C     -4.668016    1.376250   -2.241453
C     -3.719240    2.587055   -2.267347
C     -2.716342    2.575375   -1.108516
C     -1.940655    1.252200   -1.062430
C     -0.817338    1.282630   -0.002791
H     -1.225106   -1.415935    1.010154
H     -0.142244   -2.123476   -0.189108
H     -1.545502   -1.303488   -2.038426
H     -2.569274   -2.163139   -0.897522
H     -4.345412    0.819125    0.501638
H     -4.208549   -0.939657    0.523126
H     -2.963470    0.051173    1.270428
H     -3.232940    0.010397   -3.049907
H     -5.399334   -1.280185   -1.322483
H     -4.203032   -2.109075   -2.295274
H     -5.158526   -1.239333   -4.378437
H     -6.411413   -2.037805   -3.431404
H     -7.113412    0.133617   -1.352641
H     -8.265768   -0.674086   -2.419014
H     -8.198262    1.088460   -2.361433
H     -6.702471    0.087483   -5.668972
H     -8.273759   -0.098871   -4.890118
H     -7.306568    2.359316   -5.876008
H     -8.492330    2.276006   -4.587480
H     -6.928866    2.960241   -2.967692
H     -5.842194    3.363297   -4.289799
H     -4.893797    1.157894   -4.342454
H     -5.308188    1.472791   -1.352412
H     -3.165077    2.583966   -3.218807
H     -4.300893    3.517163   -2.252365
H     -3.237072    2.739682   -0.154659
H     -2.009473    3.408750   -1.216910
H     -1.440753    1.147947   -2.039764
H     -1.248379    1.421415    0.999895
H     -0.137125    2.122378   -0.178648


