39
-579322.3232038941
O      1.209891   -0.000000    0.000000
C      0.000000    0.000000    0.000000
C     -0.868627   -1.279616    0.004141
C     -0.452042   -2.318421    1.028607
C     -0.536419   -3.676726    0.693294
C     -0.210987   -4.668446    1.618662
C      0.210397   -4.314341    2.901022
C      0.305052   -2.965084    3.245231
C     -0.023401   -1.975363    2.318394
C     -2.373876   -0.822841    0.121707
C     -2.486716    0.065412    1.350205
C     -1.660936    1.201618    1.291539
C     -1.615107    2.097104    2.357047
C     -2.420512    1.869248    3.478241
C     -3.251294    0.748519    3.532695
C     -3.282869   -0.160483    2.469410
C     -0.853894    1.294166    0.004141
C     -1.811233    1.173198   -1.171354
C     -2.646415    0.045758   -1.096142
C     -3.578171   -0.201343   -2.100152
C     -3.677043    0.682257   -3.181017
C     -2.841673    1.798010   -3.257588
C     -1.899821    2.045260   -2.252829
H     -0.741420   -1.723480   -0.991804
H     -0.857308   -3.960091   -0.307132
H     -0.280759   -5.715338    1.334916
H      0.469927   -5.083182    3.623886
H      0.640068   -2.678435    4.238605
H      0.065852   -0.930953    2.600397
H     -3.033899   -1.692901    0.172200
H     -0.966455    2.968495    2.312719
H     -2.398450    2.569475    4.308853
H     -3.873189    0.577000    4.407097
H     -3.919206   -1.040610    2.518587
H     -0.201980    2.168215   -0.044159
H     -4.224630   -1.074196   -2.044329
H     -4.406925    0.496619   -3.964361
H     -2.922349    2.479349   -4.100170
H     -1.247323    2.912940   -2.311859

