24
-267693.9229959775
O      1.207702    0.000000   -0.000000
C      0.000000    0.000000    0.000000
C     -1.008759   -1.155487   -0.017226
C     -1.773354   -0.797436   -1.327292
C     -3.128056   -1.490956   -1.500813
C     -1.773354    0.797434   -1.327292
C     -3.128056    1.490954   -1.500814
C     -1.008760    1.155486   -0.017226
C     -1.844270    0.785959    1.231786
C     -1.844270   -0.785961    1.231786
H     -0.575324   -2.157326   -0.006323
H     -1.141186   -1.125794   -2.162285
H     -3.858623   -1.205151   -0.737692
H     -3.565397   -1.253964   -2.477073
H     -3.006230   -2.579470   -1.451500
H     -1.141186    1.125792   -2.162285
H     -3.006231    2.579467   -1.451502
H     -3.858625    1.205148   -0.737694
H     -3.565396    1.253961   -2.477076
H     -0.575325    2.157326   -0.006323
H     -1.364458    1.177075    2.135110
H     -2.853872    1.204429    1.198947
H     -2.853871   -1.204431    1.198946
H     -1.364459   -1.177076    2.135110

