%nprocshared=10
%mem=12GB
%chk= 0.chk
# freq b3lyp/6-31g(d)

good luck!

0 1
O      1.215581   -0.000000    0.000000
C      0.000000    0.000000    0.000000
C     -0.854555   -1.261538    0.012240
C     -1.730657   -1.271331   -1.260788
C     -2.573041    0.000000   -1.457293
F     -2.962778   -0.000000   -2.819680
C     -3.900784    0.000000   -0.692775
C     -3.863532   -0.000000    0.859789
C     -1.730656    1.271331   -1.260788
C     -0.854555    1.261538    0.012240
C     -1.660672    1.275057    1.334767
C     -2.500391   -0.000000    1.582975
C     -1.660672   -1.275057    1.334767
H     -0.184601   -2.127336   -0.009150
H     -1.077627   -1.358387   -2.137718
H     -2.385657   -2.151988   -1.264382
H     -4.457502   -0.874020   -1.049560
H     -4.457501    0.874022   -1.049559
H     -4.420492   -0.872833    1.222250
H     -4.420493    0.872832    1.222250
H     -2.385656    2.151988   -1.264383
H     -1.077626    1.358387   -2.137718
H     -0.184601    2.127336   -0.009149
H     -0.943337    1.390036    2.158335
H     -2.307846    2.162298    1.361005
H     -2.755151   -0.000000    2.651992
H     -2.307846   -2.162298    1.361005
H     -0.943336   -1.390036    2.158335


