%nprocshared=10
%mem=12GB
%chk= 0.chk
# freq b3lyp/6-31g(d)

good luck!

0 1
O      1.216189   -0.000000   -0.000000
C      0.000000    0.000000    0.000000
C     -0.814949   -1.285415    0.001262
C     -1.866824   -1.273590    1.128287
C     -2.723770   -0.008752    1.065234
Cl    -3.954878   -0.082517    2.427866
C     -1.890176    1.278736    1.143909
C     -2.730690    2.566821    1.077272
C     -1.855814    3.827973    1.123017
C     -0.796462    3.824640    0.012633
C      0.049506    2.545972    0.053904
C     -0.826008    1.286300    0.001262
H     -0.135099   -2.136115    0.100558
H     -1.320865   -1.372634   -0.972026
H     -1.364803   -1.311847    2.102646
H     -2.504027   -2.160975    1.061613
H     -3.330870   -0.003612    0.153490
H     -1.351535    1.264106    2.103773
H     -3.315060    2.560005    0.144101
H     -3.452387    2.576755    1.900048
H     -1.356752    3.884963    2.101373
H     -2.489685    4.719923    1.045271
H     -1.295242    3.902022   -0.965067
H     -0.148128    4.705151    0.100924
H      0.648032    2.521172    0.974125
H      0.767166    2.522093   -0.772921
H     -1.387239    1.285263   -0.950588


