39
-508474.58264113043
O      1.216371    0.000000   -0.000000
C      0.000000    0.000000    0.000000
C     -0.852032   -1.263493    0.000040
C     -1.748882   -1.248098    1.262492
C     -1.742201   -1.252691   -1.267929
C     -2.627015    0.009644   -1.269330
C     -1.730846    1.262248   -1.273053
C     -0.849792    1.266250    0.000040
C     -1.752594    1.257417    1.258225
C     -2.668549    0.007679    1.286453
C     -3.577299   -0.029854    2.521030
C     -4.474344   -1.100796    2.705248
C     -5.313281   -1.177089    3.807165
C     -5.288438   -0.170527    4.783590
O     -6.149714   -0.334331    5.831014
C     -6.160478    0.654584    6.847268
C     -4.410389    0.903621    4.627474
C     -3.572212    0.960731    3.507346
C     -3.522718    0.016692   -0.014543
H     -0.186576   -2.132874    0.008272
H     -2.354144   -2.162870    1.279009
H     -1.129553   -1.264739    2.168531
H     -1.115347   -1.281508   -2.168769
H     -2.365176   -2.157491   -1.281869
H     -3.260377    0.010200   -2.166057
H     -2.344324    2.173230   -1.293893
H     -1.098252    1.280344   -2.170165
H     -0.180846    2.132746    0.014432
H     -1.124120    1.285236    2.157604
H     -2.359983    2.172312    1.261948
H     -4.521791   -1.899634    1.970027
H     -5.998774   -2.009196    3.935720
H     -6.907705    0.329993    7.573847
H     -5.183982    0.735341    7.343326
H     -6.444261    1.638803    6.451029
H     -4.363638    1.700082    5.361616
H     -2.904927    1.811733    3.425025
H     -4.170479    0.903566   -0.014724
H     -4.187102   -0.856177   -0.031880

