39
-508474.58261749113
O      1.216380    0.000000   -0.000000
C      0.000000    0.000000    0.000000
C     -0.849755   -1.266230    0.000151
C     -1.752093   -1.257450    1.258725
C     -1.731354   -1.262195   -1.272563
C     -2.627549   -0.009600   -1.268432
C     -1.742731    1.252736   -1.267400
C     -0.851975    1.263515    0.000151
C     -1.748293    1.248119    1.263024
C     -2.667958   -0.007664    1.287361
C     -3.576156    0.029723    2.522343
C     -3.570827   -0.961235    3.508294
C     -4.408540   -0.904442    4.628786
C     -5.286470    0.169752    4.785644
O     -6.147237    0.333365    5.833553
C     -6.157523   -0.655664    6.849778
C     -5.311556    1.176663    3.809602
C     -4.473009    1.100690    2.707337
C     -3.522718   -0.016673   -0.013275
H     -0.180840   -2.132761    0.014288
H     -2.359528   -2.172305    1.262472
H     -1.123331   -1.285437    2.157906
H     -2.344832   -2.173177   -1.293108
H     -1.099157   -1.280295   -2.169958
H     -3.261284   -0.010164   -2.164900
H     -1.116313    1.281601   -2.168545
H     -2.365717    2.157532   -1.280996
H     -0.186515    2.132896    0.008163
H     -2.353509    2.162909    1.279715
H     -1.128529    1.264822    2.168765
H     -2.903609   -1.812261    3.425410
H     -4.361519   -1.701142    5.362650
H     -6.905133   -0.331680    7.576228
H     -6.440451   -1.640030    6.453287
H     -5.181041   -0.735741    7.345971
H     -5.996903    2.008821    3.938698
H     -4.520738    1.899792    1.972404
H     -4.170473   -0.903555   -0.013201
H     -4.187110    0.856199   -0.030265

