39
-508474.521285956
O      1.216550    0.000000   -0.000000
C      0.000000    0.000000    0.000000
C     -0.848439   -1.267865    0.002965
C     -1.733004   -1.260756    1.274518
C     -1.751845   -1.257203   -1.253532
C     -2.641684    0.000031   -1.231899
C     -1.751824    1.257245   -1.253527
C     -0.848413    1.267875    0.002965
C     -1.732974    1.260780    1.274516
C     -2.644460    0.000024    1.320828
C     -3.480444    0.000005    2.607479
C     -2.850250   -0.018313    3.859706
C     -3.565659   -0.019221    5.058355
C     -4.964668   -0.001344    5.029092
O     -5.769708   -0.000324    6.132831
C     -5.153782   -0.018638    7.410164
C     -5.617791    0.017107    3.791607
C     -4.885262    0.017652    2.608981
C     -3.515212    0.000031    0.038932
H     -0.178497   -2.133859    0.002622
H     -2.355804   -2.165041    1.292923
H     -1.095939   -1.299959    2.166078
H     -1.137525   -1.275913   -2.163232
H     -2.369814   -2.165291   -1.264263
H     -3.294370    0.000040   -2.114509
H     -1.137508    1.275947   -2.163230
H     -2.369773    2.165345   -1.264245
H     -0.178453    2.133858    0.002626
H     -1.095889    1.299978    2.166047
H     -2.355751    2.165074    1.292928
H     -1.765036   -0.032526    3.919501
H     -3.024887   -0.033819    5.998005
H     -5.969116   -0.014392    8.135957
H     -4.523520    0.866810    7.568631
H     -4.546010   -0.922151    7.553833
H     -6.703406    0.030901    3.777062
H     -5.433356    0.032287    1.673276
H     -4.168689   -0.882567    0.032051
H     -4.168721    0.882608    0.032080

