31
-327859.11282866704
O      1.218457   -0.000000    0.000000
C      0.000000    0.000000    0.000000
C     -0.818143   -1.283352   -0.081220
C     -1.707302   -1.297314   -1.350869
C     -2.693511   -2.469225   -1.346229
C     -2.425153    0.062842   -1.485365
N     -1.545386    1.232097   -1.397173
C     -0.667582    1.391259   -2.558351
C     -0.856012    1.276073   -0.081220
C     -0.091743    2.582724    0.192915
C      0.435581    2.599068    1.637831
C     -0.974957    3.811455   -0.069136
H     -0.138918   -2.141508   -0.057095
H     -1.469072   -1.336356    0.805557
H     -1.040724   -1.415503   -2.216917
H     -3.392913   -2.391850   -0.503612
H     -2.170177   -3.428200   -1.258344
H     -3.283996   -2.494048   -2.269963
H     -3.178715    0.152160   -0.688316
H     -2.963694    0.109371   -2.440225
H     -0.196107    2.377537   -2.533877
H      0.136024    0.640601   -2.646438
H     -1.281455    1.340248   -3.463933
H     -1.659241    1.192751    0.667419
H      0.780324    2.616442   -0.472117
H      1.121187    1.768752    1.824075
H     -0.390948    2.538981    2.358919
H      0.974879    3.532596    1.835125
H     -0.405933    4.733042    0.099971
H     -1.835469    3.823367    0.612407
H     -1.367544    3.828249   -1.089171

