31
-327857.384739715
O      1.217639    0.000000   -0.000000
C      0.000000    0.000000    0.000000
C     -0.824071   -1.271627   -0.005034
C     -1.854026   -1.288255    1.157475
C     -1.349361   -2.091341    2.362045
C     -2.203397    0.156282    1.567607
N     -2.185398    1.068476    0.417482
C     -2.907802    2.299593    0.725236
C     -0.792933    1.316921   -0.005034
C     -0.700724    2.014038   -1.400035
C      0.717720    2.522002   -1.697339
C     -1.240804    1.139961   -2.541393
H     -1.363835   -1.298883   -0.959559
H     -0.147068   -2.130045    0.028267
H     -2.770268   -1.760647    0.783386
H     -2.067220   -2.056392    3.190855
H     -0.394941   -1.693821    2.729124
H     -1.194358   -3.143359    2.097740
H     -3.203459    0.176318    2.013337
H     -1.503027    0.502770    2.356640
H     -2.429213    2.892013    1.529619
H     -3.923925    2.049058    1.046347
H     -2.992189    2.935555   -0.159076
H     -0.281269    1.976920    0.724353
H     -1.344457    2.899868   -1.333921
H      1.075329    3.192234   -0.906961
H      0.723224    3.080765   -2.640718
H      1.433878    1.699962   -1.779441
H     -1.309563    1.722499   -3.467259
H     -0.578059    0.289022   -2.743341
H     -2.237319    0.753876   -2.304226

