41
-579607.5833106214
O      1.216077   -0.000000   -0.000000
C      0.000000    0.000000    0.000000
C     -0.848824   -1.268075    0.002956
C     -1.732553   -1.262066    1.274657
C     -1.751396   -1.257380   -1.254041
C     -2.640936   -0.000000   -1.233282
C     -1.751397    1.257380   -1.254040
C     -0.848824    1.268075    0.002956
C     -1.732553    1.262066    1.274657
C     -2.643444   -0.000000    1.318023
C     -3.472784   -0.000001    2.608188
C     -4.875733    0.000012    2.608616
C     -5.604102    0.000008    3.797902
C     -4.943277   -0.000010    5.030347
C     -5.662385   -0.000013    6.333661
O     -5.118943   -0.000122    7.421344
O     -7.008526   -0.000112    6.183194
C     -7.759526   -0.000238    7.406048
C     -3.542108   -0.000026    5.048010
C     -2.825444   -0.000022    3.858238
C     -3.515484   -0.000000    0.036990
H     -0.179432   -2.134301    0.003660
H     -2.355383   -2.166283    1.292362
H     -1.095310   -1.301351    2.165726
H     -2.369256   -2.165459   -1.266007
H     -1.136053   -1.275697   -2.162894
H     -3.293551   -0.000000   -2.115746
H     -1.136054    1.275698   -2.162893
H     -2.369258    2.165459   -1.266006
H     -0.179432    2.134301    0.003660
H     -2.355383    2.166283    1.292363
H     -1.095309    1.301350    2.165726
H     -5.422409    0.000027    1.672597
H     -6.688119    0.000019    3.769864
H     -7.529405   -0.889530    7.999067
H     -7.529546    0.889028    7.999161
H     -8.807778   -0.000306    7.105416
H     -3.032740   -0.000042    6.006173
H     -1.740286   -0.000035    3.906638
H     -4.168561    0.882775    0.029525
H     -4.168560   -0.882776    0.029525

