28
-503123.1561294646
O      1.215403   -0.000000    0.000000
C      0.000000    0.000000    0.000000
C     -0.850186   -1.268280   -0.008062
C     -1.762841   -1.260997    1.241915
C     -1.722942   -1.258907   -1.288312
C     -2.612834   -0.000000   -1.298361
C     -1.722942    1.258907   -1.288312
C     -0.850186    1.268280   -0.008062
C     -1.762842    1.260997    1.241915
C     -2.662218   -0.000000    1.229492
C     -3.565950   -0.000000    2.457482
F     -4.371597    1.088292    2.490075
F     -4.371603   -1.088289    2.490070
F     -2.854892   -0.000005    3.609611
C     -3.525233   -0.000000   -0.056331
H     -0.182422   -2.134994    0.009678
H     -1.156875   -1.278620    2.155173
H     -2.384138   -2.164595    1.248263
H     -2.341247   -2.166218   -1.313723
H     -1.083043   -1.280967   -2.179635
H     -3.236738   -0.000000   -2.200806
H     -2.341248    2.166217   -1.313723
H     -1.083044    1.280967   -2.179635
H     -0.182423    2.134994    0.009678
H     -1.156876    1.278621    2.155173
H     -2.384139    2.164594    1.248263
H     -4.176494    0.882222   -0.062996
H     -4.176494   -0.882223   -0.062996

