59
-649157.9454079629
C     -7.381390    2.021239    6.611137
C     -7.479431    0.487784    6.664745
C     -6.243199   -0.242267    6.086374
C     -6.393282   -1.799627    6.144396
C     -5.586230   -2.382994    4.951954
C     -4.824372   -1.168790    4.399199
C     -4.198219   -1.251480    2.999637
C     -3.278648   -2.477790    2.858179
C     -2.525126   -2.503286    1.522460
C     -1.763258   -1.190445    1.298864
C     -0.853523   -1.247604    0.046204
C      0.000000    0.000000    0.000000
C     -0.798254    1.307569    0.046204
F     -1.478671    1.413967   -1.182060
C     -1.801272    1.324985    1.200167
O      1.214962    0.000000   -0.000000
C     -2.701064    0.060970    1.321033
C     -3.421549    0.068223    2.717096
C     -4.309166    1.307859    2.968905
C     -4.989926    1.311570    4.354116
C     -5.801441    0.025116    4.606939
C     -7.025094   -0.036120    3.665482
C     -3.729574    0.040888    0.165443
C     -7.730945    0.051957    8.120938
H     -7.368748    2.404552    5.587037
H     -8.239356    2.477345    7.119783
H     -6.472981    2.377732    7.113683
H     -8.358326    0.185133    6.076182
H     -5.385187    0.038744    6.718345
H     -6.032604   -2.190583    7.101040
H     -7.450248   -2.084236    6.075266
H     -4.915725   -3.191415    5.260915
H     -6.255383   -2.803207    4.190480
H     -3.988288   -0.985138    5.096298
H     -5.006522   -1.355435    2.262119
H     -2.545562   -2.469004    3.679712
H     -3.862453   -3.398883    2.975860
H     -3.223512   -2.680527    0.693417
H     -1.816507   -3.341913    1.510422
H     -1.086033   -1.074593    2.161895
H     -1.459718   -1.311794   -0.866174
H     -0.195224   -2.121145    0.079299
H     -0.101358    2.149400    0.105594
H     -1.219623    1.441855    2.126666
H     -2.408732    2.230804    1.093709
H     -2.613392    0.106012    3.468436
H     -3.707094    2.219930    2.882063
H     -5.078568    1.380703    2.191072
H     -5.614880    2.207837    4.431760
H     -4.219306    1.401939    5.134016
H     -7.673503    0.833318    3.821305
H     -6.740767   -0.038627    2.609390
H     -7.633989   -0.929783    3.837718
H     -4.313256    0.967108    0.156400
H     -3.246673   -0.028217   -0.810013
H     -4.434631   -0.790081    0.254024
H     -6.876512    0.313492    8.759454
H     -8.614261    0.557181    8.529227
H     -7.895602   -1.026407    8.209986

