32
-317807.87241663114
O      1.218144    0.000000   -0.000000
C      0.000000    0.000000    0.000000
C     -0.837262   -1.283438    0.017006
C      0.025377   -2.568579    0.028932
C     -0.780846   -3.783334    0.514200
C      0.707621   -2.865910   -1.316292
C     -1.918256   -1.213257   -1.090511
C     -2.737672    0.083823   -1.024193
C     -1.878562    1.368803   -1.096183
C     -1.195718    1.502301   -2.472505
C     -2.771697    2.599141   -0.862142
C     -0.798809    1.298455    0.017006
H     -1.381300   -1.241645    0.977559
H      0.824802   -2.383618    0.757422
H     -1.592465   -4.038452   -0.178629
H     -1.226974   -3.604360    1.500485
H     -0.135586   -4.665776    0.596669
H      1.398025   -3.710750   -1.209465
H     -0.018565   -3.137892   -2.092009
H      1.286001   -2.005691   -1.664939
H     -2.590587   -2.074128   -0.996053
H     -1.443877   -1.301976   -2.074545
H     -3.309847    0.097698   -0.084471
H     -3.477685    0.094941   -1.835717
H     -1.940779    1.511877   -3.277412
H     -0.627038    2.437795   -2.531044
H     -0.494709    0.685161   -2.674112
H     -3.285383    2.540114    0.105257
H     -3.537103    2.681711   -1.643707
H     -2.181846    3.523674   -0.873646
H     -1.298088    1.366473    0.995930
H     -0.095176    2.134536   -0.053763

