34
-352528.4108486251
O      1.216422    0.000000   -0.000000
C      0.000000    0.000000    0.000000
C     -0.828531   -1.282246    0.026633
C      0.045201   -2.519710   -0.192281
C     -2.030752   -1.157197   -0.944631
C     -3.030163   -2.310939   -0.786732
C     -2.740701    0.194126   -0.756584
N     -1.829678    1.314552   -0.995896
C     -2.476763    2.639929   -1.252142
C     -3.338523    2.529468   -2.527704
C     -3.353573    3.120259   -0.073232
C     -1.382462    3.690266   -1.534430
C     -0.780813    1.314033    0.026633
H     -1.253873   -1.318801    1.046532
H      0.422251   -2.551636   -1.220878
H     -0.512624   -3.441257   -0.001882
H      0.913316   -2.496443    0.471095
H     -1.634815   -1.169927   -1.970085
H     -3.433934   -2.348110    0.233454
H     -3.874989   -2.191036   -1.475427
H     -2.569076   -3.280067   -0.998918
H     -3.185559    0.225719    0.260100
H     -3.569546    0.244267   -1.465077
H     -3.687446    3.523537   -2.826853
H     -4.229477    1.909724   -2.387652
H     -2.749218    2.107476   -3.348620
H     -4.185283    2.433056    0.117935
H     -2.770156    3.212188    0.850207
H     -3.782589    4.105333   -0.290080
H     -0.670468    3.314556   -2.277246
H     -1.842238    4.601927   -1.929689
H     -0.828020    3.976501   -0.635508
H     -0.054901    2.105000   -0.153689
H     -1.181144    1.447928    1.055827

