25
-278518.3440689934
O      1.216631    0.000000    0.000000
C      0.000000    0.000000    0.000000
C     -0.799971   -1.298572    0.005351
C     -1.942696   -1.340836   -1.039027
N     -2.774906   -2.543989   -0.840684
C     -3.894028   -2.620023   -1.778729
C     -2.002300   -3.784049   -0.911511
C     -2.778162   -0.049139   -0.941170
C     -1.917583    1.215395   -1.070418
C     -0.819598    1.278290    0.005351
H     -0.081483   -2.108868   -0.130187
H     -1.257274   -1.414387    1.000241
H     -1.477625   -1.365779   -2.048455
H     -4.602277   -1.805118   -1.614363
H     -3.578051   -2.597525   -2.840774
H     -4.433302   -3.557371   -1.610574
H     -1.467046   -3.910972   -1.873393
H     -2.682672   -4.632849   -0.791653
H     -1.269863   -3.838593   -0.103545
H     -3.540390   -0.027688   -1.725580
H     -3.309273   -0.049952    0.021385
H     -1.450564    1.240052   -2.064785
H     -2.553934    2.105517   -1.004844
H     -0.147383    2.130077   -0.131887
H     -1.290691    1.375690    0.995489

