25
-278518.87351200724
O      1.216789    0.000000    0.000000
C      0.000000    0.000000    0.000000
C     -0.815790   -1.287455   -0.008342
C     -1.829079   -1.303797    1.158843
N     -1.146600   -1.265526    2.466024
C     -0.039048   -2.213029    2.592632
C     -2.081170   -1.442617    3.574140
C     -2.754114   -0.077679    0.981267
C     -1.965222    1.238895    1.037748
C     -0.830112    1.276253   -0.008342
H     -1.393841   -1.325872   -0.942084
H     -0.142352   -2.146180   -0.008635
H     -2.436661   -2.227822    1.069450
H      0.774008   -1.955018    1.911184
H     -0.338110   -3.264026    2.410925
H      0.357177   -2.151485    3.611001
H     -2.613724   -2.413857    3.539122
H     -1.532703   -1.392831    4.519901
H     -2.830136   -0.646990    3.588382
H     -3.550744   -0.070665    1.732166
H     -3.258490   -0.174814    0.009774
H     -2.637631    2.090637    0.879910
H     -1.529098    1.348399    2.036141
H     -0.163167    2.130801    0.138546
H     -1.270839    1.367812   -1.013729

