19
-229185.9081989031
O      1.216858    0.000000   -0.000000
C      0.000000    0.000000    0.000000
C     -0.826804   -1.288088    0.007378
C      0.040392   -2.536269    0.161555
C     -1.921488   -1.181434    1.094181
N     -2.712974    0.032005    0.898023
C     -1.909781    1.238710    1.087404
C     -0.814313    1.288009    0.007378
H     -1.356496   -1.314209   -0.957521
H      0.566084   -2.533717    1.122500
H     -0.572820   -3.442736    0.106083
H      0.800496   -2.581294   -0.622706
H     -1.433458   -1.220130    2.088770
H     -2.585789   -2.050275    1.025196
H     -3.501759    0.036493    1.540979
H     -1.429789    1.281896    2.084663
H     -2.560330    2.115807    1.000438
H     -1.299222    1.392868   -0.972725
H     -0.136164    2.133377    0.154842

