19
-229184.21763060434
O      1.216738   -0.000000   -0.000000
C      0.000000    0.000000    0.000000
C     -0.809030   -1.300207    0.012268
C     -1.262551   -1.631973    1.448668
C     -2.005225   -1.192085   -0.958278
N     -2.781010    0.013895   -0.666838
C     -2.008724    1.222576   -0.950398
C     -0.810714    1.291759    0.012268
H     -0.130746   -2.087296   -0.335999
H     -2.003047   -0.909590    1.803622
H     -0.411134   -1.637454    2.137497
H     -1.723959   -2.626132    1.473407
H     -2.655177   -2.067092   -0.839545
H     -1.622715   -1.205021   -1.997796
H     -3.639697    0.013247   -1.212385
H     -1.634378    1.253601   -1.992551
H     -2.652275    2.097799   -0.809528
H     -0.142827    2.125273   -0.223903
H     -1.193206    1.438031    1.031931

