16
-217581.05907444895
O      1.200950   -0.000000   -0.000000
C      0.000000    0.000000    0.000000
C     -1.035839   -1.155342   -0.002597
C     -1.854531   -0.673716    1.175293
C     -1.854531    0.673716    1.175293
C     -1.035839    1.155342   -0.002597
C     -1.798319    0.783111   -1.317874
C     -1.798319   -0.783111   -1.317874
H     -0.638749   -2.169638    0.041857
H     -2.355887   -1.327707    1.881189
H     -2.355887    1.327707    1.881189
H     -0.638749    2.169638    0.041857
H     -1.266747    1.179904   -2.189677
H     -2.808477    1.201332   -1.320352
H     -2.808477   -1.201332   -1.320352
H     -1.266747   -1.179904   -2.189677

