28
-339578.99058676243
O      1.216766    0.000000   -0.000000
C      0.000000    0.000000    0.000000
C     -0.811522   -1.290280    0.001470
C     -1.874118   -1.274082    1.115588
C     -2.746164   -0.012943    1.060568
O     -3.659925    0.025367    2.156223
C     -1.893276    1.260853    1.133020
C     -2.742336    2.543543    1.093762
C     -1.873073    3.807672    1.157145
C     -0.813989    3.821839    0.045139
C      0.041639    2.547739    0.066870
C     -0.827294    1.284654    0.001470
H     -1.308631   -1.378613   -0.976611
H     -0.126121   -2.136344    0.102562
H     -1.387948   -1.308464    2.099075
H     -2.505154   -2.170769    1.041603
H     -3.303973   -0.003028    0.105643
H     -4.218323   -0.765784    2.103406
H     -1.362565    1.232741    2.098172
H     -3.329308    2.550905    0.161806
H     -3.461418    2.523876    1.918438
H     -1.371771    3.852704    2.135162
H     -2.507053    4.700953    1.091690
H     -0.170675    4.705453    0.141970
H     -1.315417    3.907844   -0.930680
H      0.641606    2.515813    0.986092
H      0.758545    2.542385   -0.761183
H     -1.381849    1.286068   -0.954652

