%nprocshared=8
%mem=4GB
%chk= 0.chk
# freq b3lyp/6-31g(d)

good luck!

0 1
O      1.216241    0.000000    0.000000
C      0.000000    0.000000    0.000000
C     -0.808518   -1.297183    0.004707
C     -2.100265   -1.190524   -0.834584
C     -2.938649    0.000000   -0.330354
C     -1.789220   -0.781661   -2.299001
C     -1.789220    0.781661   -2.299001
C     -2.100265    1.190524   -0.834584
C     -0.808518    1.297183    0.004707
H     -1.070276   -1.519498    1.050987
H     -0.153618   -2.104030   -0.340811
H     -2.641693   -2.141646   -0.782809
H     -3.084855    0.000000    0.757127
H     -3.930289    0.000000   -0.800773
H     -2.566747   -1.163444   -2.969696
H     -0.838126   -1.200414   -2.645769
H     -2.566747    1.163444   -2.969696
H     -0.838126    1.200414   -2.645769
H     -2.641693    2.141646   -0.782809
H     -1.070276    1.519498    1.050987
H     -0.153618    2.104030   -0.340811


