31
-327858.85108274844
O      1.216195    0.000000   -0.000000
C      0.000000    0.000000    0.000000
C     -0.831423   -1.276882    0.028003
C      0.007472   -2.529942   -0.219825
C     -2.026994   -1.130480   -0.933764
C     -2.763882    0.197149   -0.736148
N     -1.855445    1.322104   -0.975240
C     -2.507649    2.650225   -1.202405
C     -3.354840    3.120158    0.002076
C     -3.401924    2.552334   -2.456658
C     -1.420104    3.702845   -1.502296
C     -0.785119    1.314129    0.028003
H     -1.247420   -1.317459    1.050503
H      0.440422   -2.514474   -1.226073
H      0.835038   -2.595608    0.491473
H     -0.609190   -3.430825   -0.125993
H     -2.722780   -1.965724   -0.782869
H     -1.669869   -1.183830   -1.970121
H     -3.202671    0.222243    0.282311
H     -3.594941    0.245465   -1.441651
H     -2.748711    3.207196    0.911211
H     -4.180371    2.430146    0.209277
H     -3.790978    4.105840   -0.197084
H     -2.836159    2.132482   -3.295079
H     -4.292604    1.936699   -2.297747
H     -3.752756    3.550096   -2.740839
H     -0.841682    3.979238   -0.615450
H     -1.888818    4.619069   -1.875907
H     -0.728518    3.333867   -2.267450
H     -1.165572    1.450210    1.064289
H     -0.062421    2.105024   -0.165763

