36
-436729.31896121433
C     -4.298200   -1.725217   -1.039328
C     -3.090563   -0.767843   -0.955900
C     -3.251484    0.283675   -2.092843
C     -2.445658   -0.283846   -3.273786
C     -1.187286   -0.873488   -2.615390
C     -1.689554   -1.514227   -1.288004
C     -1.810010   -3.039862   -1.483811
C     -0.803016   -1.302930   -0.008164
C      0.000000    0.000000    0.000000
C     -0.813064    1.292182   -0.008164
C     -2.211750    1.173228    0.630183
C     -2.919864   -0.219831    0.520851
C     -1.878427   -1.194874    1.074764
O     -1.900548   -1.770117    2.139814
C     -4.186166   -0.170612    1.381654
O      1.213787   -0.000000   -0.000000
H     -4.235089   -2.560904   -0.335798
H     -4.391673   -2.146220   -2.045427
H     -5.226446   -1.185007   -0.829602
H     -2.844642    1.259292   -1.812687
H     -4.305152    0.448771   -2.344347
H     -2.213702    0.472083   -4.032113
H     -3.015929   -1.075474   -3.776502
H     -0.453439   -0.080911   -2.436567
H     -0.686939   -1.611347   -3.251504
H     -2.203680   -3.546705   -0.596502
H     -2.451867   -3.293530   -2.333455
H     -0.817273   -3.457437   -1.685329
H     -0.107772   -2.124000    0.174408
H     -0.889604    1.602553   -1.057735
H     -0.214918    2.062958    0.487585
H     -2.875049    1.944415    0.222321
H     -2.121988    1.387103    1.702008
H     -4.655625   -1.151431    1.480377
H     -3.936130    0.165298    2.392696
H     -4.922141    0.526233    0.963936

