28
-303191.70774265646
O      1.217666   -0.000000   -0.000000
C      0.000000    0.000000    0.000000
C     -0.834522   -1.273665   -0.011567
C      0.016128   -2.537721   -0.122574
C     -1.886625   -1.166891   -1.136676
N     -2.669715    0.066683   -1.061257
C     -3.826983   -0.006051   -1.948096
C     -1.857901    1.310200   -1.169239
C     -1.118124    1.457325   -2.520567
C     -2.757019    2.539687   -0.948576
C     -0.820825    1.276165   -0.011567
H     -1.395340   -1.279475    0.935755
H      0.743867   -2.588448    0.691815
H     -0.612728   -3.434366   -0.084482
H      0.579237   -2.550585   -1.061813
H     -2.583335   -2.007796   -1.040037
H     -1.381715   -1.296838   -2.113671
H     -4.403268   -0.903633   -1.698730
H     -4.482953    0.854348   -1.798893
H     -3.573262   -0.063852   -3.022905
H     -0.579748    2.410832   -2.557070
H     -0.380937    0.663522   -2.680715
H     -1.821548    1.442151   -3.360282
H     -3.396765    2.394088   -0.071377
H     -2.136309    3.426274   -0.780055
H     -3.393755    2.749897   -1.814060
H     -0.141223    2.130928   -0.076896
H     -1.370728    1.339124    0.937276

