28
-303189.87878769764
O      1.217493   -0.000000    0.000000
C      0.000000    0.000000    0.000000
C     -0.819415   -1.284391   -0.001920
C     -1.382655   -1.570123   -1.409311
C     -1.940280   -1.180133    1.051869
N     -2.728025    0.046337    0.905894
C     -3.953004   -0.032989    1.695525
C     -1.934101    1.295217    1.078971
C     -1.292107    1.438538    2.480237
C     -2.824799    2.520326    0.806104
C     -0.817722    1.279338   -0.001920
H     -0.136800   -2.094102    0.279435
H     -1.844354   -2.564092   -1.430293
H     -0.589413   -1.551422   -2.164478
H     -2.149006   -0.838802   -1.681973
H     -1.504296   -1.285355    2.063005
H     -2.623187   -2.028847    0.923805
H     -4.602500    0.820594    1.489966
H     -3.786644   -0.084422    2.787675
H     -4.498799   -0.936947    1.404520
H     -0.550418    0.658425    2.681752
H     -2.050302    1.398395    3.270040
H     -0.778188    2.402477    2.563882
H     -3.402852    2.377101   -0.113370
H     -3.519810    2.721048    1.627907
H     -2.199751    3.411613    0.684873
H     -1.296128    1.375504   -0.986135
H     -0.138208    2.126725    0.129252

