23
-384488.88761836523
O      1.213476    0.000000   -0.000000
C      0.000000    0.000000    0.000000
C     -0.807551   -1.293265    0.060321
O     -2.135123   -1.161957   -0.430809
C     -2.784363    0.000000    0.052991
C     -4.205546    0.000000   -0.444417
C     -5.272300    0.000008    0.455949
C     -6.588531    0.000010   -0.010942
C     -6.839746    0.000003   -1.382875
C     -5.773266   -0.000005   -2.286945
C     -4.460500   -0.000005   -1.820895
O     -2.135123    1.161957   -0.430810
C     -0.807551    1.293265    0.060321
H     -0.812803   -1.625590    1.114935
H     -0.306855   -2.064606   -0.529992
H     -2.752098    0.000000    1.159105
H     -5.076008    0.000014    1.525705
H     -7.413521    0.000016    0.696207
H     -7.863037    0.000004   -1.748898
H     -5.966996   -0.000010   -3.356228
H     -3.626743   -0.000011   -2.515576
H     -0.812803    1.625589    1.114935
H     -0.306855    2.064606   -0.529992

