37
-494614.049162737
O      1.214520   -0.000000    0.000000
C      0.000000    0.000000    0.000000
C     -0.831492   -1.276550   -0.013506
C     -1.535498   -1.338064   -1.396576
C     -2.094132   -0.008265   -1.876612
C     -1.743790    1.221829   -1.275551
C     -2.257960    2.407745   -1.804131
C     -3.109559    2.406406   -2.914303
O     -3.539707    3.635542   -3.329411
C     -4.398584    3.697615   -4.455966
C     -3.462945    1.192754   -3.511895
C     -2.949306    0.009768   -2.981959
C     -0.860067    1.266354   -0.013506
C      0.031774    2.511413    0.068612
C     -1.772259    1.170071    1.252410
C     -2.573905   -0.130961    1.314007
N     -1.689602   -1.288396    1.185034
C     -2.378273   -2.551777    1.393208
H     -0.144297   -2.123373    0.075897
H     -2.325919   -2.099303   -1.381213
H     -0.791315   -1.697082   -2.122401
H     -2.012142    3.369461   -1.368263
H     -4.610015    4.756877   -4.613610
H     -3.918370    3.286873   -5.354190
H     -5.341388    3.163446   -4.276672
H     -4.122758    1.155219   -4.371029
H     -3.222088   -0.933855   -3.450454
H      0.732978    2.409560    0.901557
H      0.619565    2.638503   -0.844875
H     -0.560208    3.417325    0.232150
H     -2.455870    2.027629    1.261386
H     -1.134620    1.241549    2.142652
H     -3.071157   -0.201119    2.289477
H     -3.374794   -0.122693    0.551932
H     -3.183448   -2.757849    0.662544
H     -2.830648   -2.554501    2.391485
H     -1.657814   -3.375815    1.346220

