%nprocshared=10
%mem=12GB
%chk= 0.chk
# freq b3lyp/6-31g(d)

good luck!

0 1
O      1.218929   -0.000000    0.000000
C      0.000000    0.000000    0.000000
C     -0.782843   -1.315824    0.028792
C      0.129442   -2.503378   -0.294111
C     -1.466369   -1.500287    1.421564
C     -2.736700   -0.705410    1.630169
C     -3.948397   -1.383131    1.815991
C     -5.148053   -0.696777    2.003186
C     -5.148053    0.696778    2.003186
C     -3.948396    1.383132    1.815991
C     -2.736700    0.705410    1.630170
C     -1.466368    1.500287    1.421564
C     -0.782843    1.315823    0.028792
C      0.129442    2.503378   -0.294112
H     -1.583304   -1.252754   -0.721628
H      0.909871   -2.614676    0.464795
H      0.630444   -2.366418   -1.257082
H     -0.453602   -3.430116   -0.334814
H     -1.700112   -2.564963    1.532727
H     -0.727379   -1.270819    2.203211
H     -3.947914   -2.471014    1.816717
H     -6.073156   -1.248365    2.147665
H     -6.073155    1.248367    2.147666
H     -3.947913    2.471014    1.816718
H     -1.700111    2.564963    1.532728
H     -0.727379    1.270818    2.203211
H     -1.583304    1.252754   -0.721627
H     -0.453603    3.430116   -0.334817
H      0.909870    2.614678    0.464795
H      0.630445    2.366417   -1.257082


