35
-376426.1743187192
O      1.213466   -0.000000   -0.000000
C      0.000000    0.000000    0.000000
C     -0.928184   -1.208008   -0.006819
C     -2.138318   -0.689068    0.827848
C     -1.778312   -0.417169    2.303119
C     -3.344392   -1.645880    0.833210
C     -1.499266   -1.247618   -1.457160
C     -2.463868   -0.024041   -1.491935
C     -2.340268    0.592010   -0.073163
C     -3.470333    1.544585    0.289348
C     -0.918708    1.249949   -0.006819
N     -0.660121    2.295945   -1.002111
C      0.359041    2.030178   -2.015765
C     -0.485959    3.619527   -0.414997
H     -0.441065   -2.129388    0.321490
H     -0.848778    0.142588    2.440543
H     -2.579864    0.137007    2.806034
H     -1.656808   -1.367442    2.836497
H     -3.075492   -2.589832    1.322596
H     -4.174038   -1.210045    1.402500
H     -3.722114   -1.887072   -0.163037
H     -0.703476   -1.191189   -2.207211
H     -2.025656   -2.192106   -1.626902
H     -2.192329    0.716975   -2.248561
H     -3.494583   -0.329200   -1.700079
H     -4.447822    1.051625    0.227938
H     -3.358679    1.943998    1.305327
H     -3.482875    2.393337   -0.404134
H     -0.795826    1.696330    0.988643
H      1.385366    1.998479   -1.617932
H      0.301518    2.817990   -2.775717
H      0.163993    1.076586   -2.514083
H      0.463227    3.733678    0.142078
H     -1.312684    3.839098    0.267874
H     -0.500928    4.374058   -1.210059

