25
-353899.87042180024
O      1.215172   -0.000000   -0.000000
C      0.000000    0.000000    0.000000
C     -0.849646   -1.271173   -0.009242
C     -1.771900   -1.256396    1.235581
C     -1.718881   -1.258614   -1.293722
C     -2.611174    0.000000   -1.307904
C     -1.718881    1.258614   -1.293722
C     -0.849646    1.271173   -0.009242
C     -1.771900    1.256396    1.235581
C     -2.650008    0.000000    1.197708
F     -3.481853    0.000000    2.327048
C     -3.522610    0.000000   -0.060777
H     -0.181012   -2.137026    0.007694
H     -2.408564   -2.149894    1.245063
H     -1.182084   -1.263646    2.160199
H     -2.335512   -2.166738   -1.323553
H     -1.074970   -1.277996   -2.182188
H     -3.229739    0.000000   -2.213904
H     -2.335512    2.166739   -1.323552
H     -1.074970    1.277997   -2.182188
H     -0.181012    2.137026    0.007695
H     -2.408564    2.149894    1.245063
H     -1.182084    1.263646    2.160199
H     -4.172339    0.884137   -0.051566
H     -4.172339   -0.884137   -0.051566

