40
-519281.1109009605
O      1.215589   -0.000000    0.000000
C      0.000000    0.000000    0.000000
C     -0.811540   -1.287145   -0.057546
C     -1.355449   -1.361660   -1.511254
C     -1.887618   -0.040616   -2.042758
C     -1.628157    1.197842   -1.409005
C     -2.132237    2.366179   -1.985792
C     -2.874216    2.342001   -3.171942
O     -3.303419    3.559363   -3.621859
C     -4.057742    3.599765   -4.821835
C     -3.130527    1.121696   -3.802783
C     -2.633723   -0.045207   -3.224448
C     -0.869890    1.260480   -0.057546
C     -0.004533    2.537395    0.076649
C      0.757540    2.710581    1.398895
C     -1.916113    1.143552    1.096368
C     -2.706629   -0.165154    1.058936
N     -1.796155   -1.308882    1.036061
C     -2.484316   -2.582512    1.170247
H     -0.124145   -2.122178    0.108365
H     -2.126126   -2.139248   -1.585871
H     -0.525745   -1.699470   -2.148885
H     -1.970132    3.336603   -1.532378
H     -4.990157    3.025947   -4.733559
H     -4.297343    4.651422   -4.990198
H     -3.481138    3.218987   -5.675458
H     -3.704653    1.066102   -4.720460
H     -2.833763   -0.996447   -3.713654
H     -0.645923    3.414876   -0.058596
H      0.713073    2.543014   -0.751311
H      1.423193    1.866596    1.592491
H      0.083357    2.827462    2.254513
H      1.371826    3.616980    1.348438
H     -2.604500    1.995670    1.037404
H     -1.394003    1.202051    2.057093
H     -3.412940   -0.167519    0.208845
H     -3.313245   -0.243032    1.969902
H     -1.750784   -3.395546    1.207938
H     -3.046240   -2.590273    2.111236
H     -3.198752   -2.802951    0.354367

