50
-512876.81559375796
C     -5.115437   -0.872723   -1.169268
C     -4.103323    0.130627   -1.782620
C     -2.802649    0.161009   -0.863630
C     -2.082720   -1.231767   -0.907117
C     -1.734835   -1.661329   -2.341593
C     -2.948367   -1.618815   -3.276951
C     -3.656211   -0.249596   -3.248357
C     -4.718523   -0.072629   -4.397681
C     -5.803707   -1.171166   -4.446314
C     -3.991202   -0.096975   -5.763315
C     -5.377286    1.322784   -4.266129
C     -5.911293    1.630527   -2.866356
C     -4.793526    1.522905   -1.820339
C     -0.825320   -1.280718    0.003274
C      0.000000    0.000000    0.000000
O      1.216952   -0.000000   -0.000000
C     -0.828810    1.273508    0.003274
C     -1.751913    1.248648   -1.233986
C     -1.855058    1.283432    1.165427
C     -3.097996    0.512823    0.634445
H     -4.801033   -1.915384   -1.256399
H     -6.096903   -0.797594   -1.639799
H     -5.262058   -0.663632   -0.104587
H     -2.785023   -1.974719   -0.508681
H     -0.936951   -1.022473   -2.745252
H     -1.317988   -2.677085   -2.318182
H     -2.617684   -1.851949   -4.294751
H     -3.648091   -2.416443   -2.997864
H     -2.887733    0.496674   -3.500944
H     -6.478007   -1.154009   -3.587185
H     -5.362905   -2.172342   -4.501881
H     -6.420052   -1.038335   -5.344207
H     -3.148303    0.604982   -5.781517
H     -3.608364   -1.090864   -6.017784
H     -4.683523    0.196178   -6.562127
H     -4.628617    2.086783   -4.525548
H     -6.178792    1.414313   -5.012003
H     -6.746050    0.963341   -2.618643
H     -6.325514    2.646948   -2.845012
H     -5.197298    1.770331   -0.831003
H     -4.055444    2.298702   -2.056335
H     -1.133940   -1.446278    1.045731
H     -0.172691   -2.117944   -0.264242
H     -0.147018    2.128344    0.023181
H     -1.204358    1.046437   -2.158861
H     -2.214147    2.234940   -1.344513
H     -2.115750    2.323280    1.391603
H     -1.449970    0.854161    2.088616
H     -3.295868   -0.390921    1.220730
H     -3.989548    1.138574    0.725807

