%nprocshared=8
%mem=4GB
%chk= 0.chk
# freq b3lyp/6-31g(d)

good luck!

0 1
O      1.206519    0.000000    0.000000
C      0.000000    0.000000    0.000000
C     -1.004523   -1.162549    0.000535
C     -1.797389   -0.796949   -1.296790
C     -3.109326   -1.425508   -1.407461
C     -4.199012   -1.939473   -1.500768
C     -1.839228    0.790135   -1.255609
C     -1.013113    1.153686    0.000535
C     -1.837672    0.777689    1.255760
C     -1.843372   -0.795866    1.245494
H     -0.574094   -2.164018   -0.004483
H     -1.193285   -1.110461   -2.157810
H     -5.159279   -2.394577   -1.589311
H     -1.394169    1.203644   -2.165730
H     -2.866450    1.158766   -1.184823
H     -0.583535    2.156223    0.000813
H     -1.361034    1.163202    2.163013
H     -2.848493    1.195926    1.209725
H     -2.852964   -1.210575    1.179967
H     -1.375946   -1.197054    2.150330


