44
-450439.84174534626
O      1.217510    0.000000    0.000000
C      0.000000    0.000000    0.000000
C     -0.795324   -1.298554   -0.008932
C     -2.072823   -1.336095    0.877511
C     -2.798224   -2.657110    0.520025
N     -3.884227   -3.084762    1.405028
C     -3.406796   -3.505733    2.716700
C     -4.669134   -4.145524    0.784151
C     -2.907175   -0.011333    0.757506
C     -3.525915    0.070810   -0.663336
C     -1.948447    1.223755    1.049343
C     -2.751141    2.550152    1.013189
C     -3.943383    2.565980    1.983423
C     -4.854310    1.346056    1.783933
C     -4.071049    0.021372    1.788339
C     -1.250289    1.124855    2.432599
C     -0.818737    1.278682   -0.008932
H     -1.082465   -1.474929   -1.057892
H     -0.110166   -2.108862    0.259477
H     -1.737509   -1.414800    1.917831
H     -3.216163   -2.566983   -0.488914
H     -2.024214   -3.450657    0.455068
H     -2.707432   -4.364280    2.664595
H     -2.896047   -2.682565    3.223477
H     -4.259464   -3.799753    3.337845
H     -5.502051   -4.418652    1.441029
H     -5.086545   -3.793694   -0.165498
H     -4.080874   -5.062710    0.581007
H     -3.950259    1.053141   -0.880442
H     -2.805678   -0.148071   -1.457922
H     -4.342814   -0.652275   -0.758173
H     -2.068451    3.378260    1.247119
H     -3.110119    2.740505   -0.006298
H     -3.577107    2.582326    3.018426
H     -4.514384    3.493890    1.849838
H     -5.618983    1.316466    2.570936
H     -5.401850    1.450058    0.837524
H     -3.672458   -0.153277    2.796417
H     -4.742916   -0.817587    1.591189
H     -0.671210    2.039070    2.609453
H     -0.542990    0.291836    2.492043
H     -1.953004    1.018078    3.261969
H     -0.142271    2.120323    0.175009
H     -1.244116    1.416682   -1.012672

