24
-267704.0379629803
O      1.212005   -0.000000    0.000000
C      0.000000    0.000000    0.000000
C     -0.919608   -1.228420   -0.004750
C     -0.244401   -2.510309    0.448291
C     -2.125715   -0.662348    0.810005
C     -3.335035   -1.581787    0.979018
C     -1.501376   -1.248887   -1.458987
C     -2.471138   -0.028836   -1.502925
C     -2.318054    0.588207   -0.091036
C     -0.919767    1.233153   -0.004750
H      0.084721   -2.436802    1.491189
H      0.645411   -2.707931   -0.158804
H     -0.918707   -3.369825    0.361239
H     -1.787296   -0.356518    1.811256
H     -3.081892   -2.451553    1.595942
H     -4.152115   -1.049168    1.480451
H     -3.721907   -1.954947    0.025174
H     -2.029901   -2.193855   -1.626189
H     -0.706148   -1.192966   -2.209837
H     -2.211131    0.688409   -2.288838
H     -3.502522   -0.346117   -1.688077
H     -3.135687    1.255129    0.198648
H     -0.670577    1.912781   -0.827330
H     -0.778657    1.786724    0.933021

