31
-364241.7685540028
O      1.214244   -0.000000   -0.000000
C      0.000000    0.000000    0.000000
C     -0.934424   -1.197142   -0.040123
C     -2.176081   -0.675130   -0.799722
C     -2.034258    0.895475   -0.922988
C     -3.435927    1.470976   -0.602589
C     -4.430921    0.276881   -0.665154
C     -5.662961    0.505383    0.221265
C     -4.888815    0.027730   -2.116327
C     -3.555460   -0.895456   -0.156140
C     -0.824639    1.300053   -0.040123
O     -0.057575    2.328505   -0.643784
C     -1.154103    1.695739    1.413015
H     -0.439260   -2.055769   -0.501950
H     -1.179790   -1.483895    0.992534
H     -2.178271   -1.109467   -1.804576
H     -1.738581    1.158580   -1.943198
H     -3.461310    1.900804    0.404370
H     -3.718217    2.274754   -1.291565
H     -6.235103    1.379390   -0.113828
H     -5.374820    0.674735    1.266114
H     -6.337288   -0.359730    0.195348
H     -5.517150   -0.869215   -2.181759
H     -5.478253    0.875473   -2.486007
H     -4.044167   -0.106737   -2.801539
H     -3.471285   -0.833705    0.938951
H     -3.985679   -1.877252   -0.389002
H      0.874072    2.073891   -0.496197
H     -0.222321    1.793321    1.980913
H     -1.657604    2.666748    1.422031
H     -1.793927    0.965320    1.921775

