35
-436090.5177524239
O      1.214942    0.000000   -0.000000
C      0.000000    0.000000    0.000000
C     -0.848225   -1.275596    0.000575
C     -2.328214   -0.895239   -0.206557
C     -2.799339   -0.071558    1.024039
C     -4.300670    0.240081    1.031700
O     -4.691614    1.095934   -0.036768
C     -6.076774    1.371010   -0.024220
C     -1.812991    1.141247    1.232165
C     -2.445978    2.489572    1.583160
O     -3.014349    2.391727    2.884201
C     -3.587294    3.606612    3.317296
C     -0.865670    1.253559    0.000575
C     -1.674600    1.275392   -1.322149
C     -2.411108   -0.079352   -1.515057
H     -0.482038   -1.939482   -0.792273
H     -0.685487   -1.803201    0.951026
H     -2.940850   -1.802255   -0.286917
H     -2.684377   -0.727659    1.898401
H     -4.854118   -0.712794    0.956829
H     -4.565382    0.706799    1.990786
H     -6.673801    0.451659   -0.134708
H     -6.284571    2.032983   -0.868799
H     -6.384094    1.870433    0.908397
H     -1.183412    0.904772    2.100157
H     -1.661645    3.266016    1.582018
H     -3.214904    2.781693    0.856042
H     -2.839675    4.415108    3.362313
H     -3.986000    3.436763    4.321028
H     -4.406830    3.933359    2.656629
H     -0.215531    2.129901    0.086318
H     -1.000693    1.482585   -2.160653
H     -2.398642    2.095351   -1.283687
H     -1.941007   -0.661182   -2.318625
H     -3.450564    0.089936   -1.797660

