35
-436090.5971484822
O      1.215193   -0.000000   -0.000000
C      0.000000    0.000000    0.000000
C     -0.845665   -1.277297   -0.002543
C     -2.332766   -0.903204    0.146823
C     -2.495464   -0.087845    1.457214
C     -3.960955    0.050642    1.875279
O     -4.005348    0.456887    3.239049
C     -5.324422    0.582622    3.724023
C     -1.669861    1.252496    1.336161
C     -2.416940    2.567218    1.589717
O     -3.420941    2.822653    0.613293
C     -4.101023    4.037787    0.849588
C     -0.869213    1.249832   -0.002543
C     -1.794894    1.142815   -1.241857
C     -2.758545   -0.065788   -1.077892
H     -0.498860   -1.930814    0.807908
H     -0.657885   -1.816980   -0.941070
H     -2.939706   -1.815190    0.210028
H     -2.036930   -0.681574    2.259463
H     -4.499689    0.774104    1.249712
H     -4.459362   -0.929094    1.769510
H     -5.897297    1.341206    3.166055
H     -5.257274    0.887528    4.771901
H     -5.872038   -0.372242    3.664895
H     -0.922174    1.241689    2.140933
H     -2.873918    2.532164    2.588601
H     -1.682474    3.391299    1.581767
H     -3.414885    4.899272    0.817202
H     -4.606917    4.037458    1.828343
H     -4.849592    4.150029    0.060881
H     -0.223361    2.131800   -0.061625
H     -2.353849    2.072050   -1.354596
H     -1.171592    1.024848   -2.136853
H     -3.788806    0.284028   -0.953963
H     -2.746522   -0.696548   -1.975016

