37
-548068.5259498142
O      1.217056    0.000000    0.000000
C      0.000000    0.000000    0.000000
C     -0.848439   -1.266053    0.006912
C     -1.727533   -1.255781    1.287431
C     -1.761555   -1.257451   -1.243650
C     -2.652004    0.000001   -1.224886
C     -1.761554    1.257452   -1.243651
C     -0.848439    1.266053    0.006912
C     -1.727532    1.255782    1.287431
C     -2.640657    0.000001    1.329495
Si    -3.729877    0.000002    2.919855
C     -4.835097   -1.542260    2.955646
C     -4.835087    1.542271    2.955652
C     -2.630882   -0.000006    4.466292
C     -3.523254    0.000001    0.049798
H     -0.179393   -2.133088    0.002662
H     -2.331115   -2.173855    1.302655
H     -1.077693   -1.289679    2.171936
H     -1.152022   -1.281778   -2.156662
H     -2.380446   -2.165314   -1.247579
H     -3.302283    0.000001   -2.109854
H     -1.152020    1.281778   -2.156662
H     -2.380444    2.165315   -1.247580
H     -0.179392    2.133088    0.002661
H     -2.331113    2.173857    1.302655
H     -1.077691    1.289679    2.171936
H     -4.248781   -2.468598    2.966968
H     -5.459655   -1.541073    3.857503
H     -5.509579   -1.586045    2.092441
H     -5.459645    1.541084    3.857508
H     -5.509568    1.586064    2.092446
H     -4.248764    2.468605    2.966977
H     -3.249535   -0.000004    5.372217
H     -1.985162   -0.884773    4.512964
H     -1.985155    0.884756    4.512967
H     -4.179271   -0.881508    0.040884
H     -4.179270    0.881511    0.040884

