59
-586890.1889503913
C     -8.524006    0.633853    6.819930
C     -8.481496    0.452268    5.291004
C     -9.860879   -0.026842    4.803348
C     -7.267254   -0.430704    4.883498
C     -7.480207   -1.976002    4.865205
C     -6.406966   -2.549594    3.888044
C     -5.553335   -1.325794    3.503074
C     -4.660007   -1.374608    2.256079
C     -3.711023   -2.585311    2.281413
C     -2.712774   -2.574807    1.118406
C     -1.936727   -1.251813    1.067953
C     -2.871987   -0.005056    0.941895
C     -3.640368    0.012244   -0.399497
C     -3.860752   -0.038203    2.161927
C     -4.790030    1.196745    2.260622
C     -5.739505    1.159118    3.477349
C     -6.557250   -0.142514    3.524389
C     -7.553383   -0.182876    2.345157
C     -0.817651   -1.282481    0.003865
C      0.000000    0.000000    0.000000
O      1.216939   -0.000000   -0.000000
C     -0.817134    1.282972    0.003865
C     -1.968616    1.254284    1.032050
H     -8.654324   -0.330730    7.327530
H     -9.358684    1.279052    7.119656
H     -7.598852    1.085898    7.196461
H     -8.308941    1.448413    4.855772
H     -9.894227   -0.207739    3.725695
H    -10.621024    0.728757    5.035390
H    -10.162880   -0.952833    5.306928
H     -6.493842   -0.230815    5.640237
H     -8.484953   -2.235244    4.518689
H     -7.382068   -2.399744    5.870439
H     -6.882141   -2.989980    3.002348
H     -5.808662   -3.342289    4.348698
H     -4.871993   -1.146652    4.352448
H     -5.300727   -1.473393    1.368013
H     -4.292367   -3.515677    2.270313
H     -3.153010   -2.580312    3.230610
H     -2.005600   -3.408202    1.224613
H     -3.237553   -2.739872    0.166904
H     -1.432720   -1.147350    2.043139
H     -4.212511    0.939896   -0.507082
H     -4.345148   -0.819261   -0.488420
H     -2.968077   -0.046584   -1.261141
H     -3.219080   -0.013674    3.059879
H     -5.383738    1.293532    1.343849
H     -4.185632    2.108583    2.324769
H     -6.393769    2.041562    3.451828
H     -5.144752    1.238118    4.399506
H     -8.239033    0.670419    2.396777
H     -7.050868   -0.129967    1.375203
H     -8.159463   -1.094287    2.343241
H     -1.252788   -1.420136   -0.997188
H     -0.137176   -2.122664    0.176620
H     -0.141106    2.123633    0.187332
H     -1.228403    1.415437   -1.007669
H     -2.565874    2.163809    0.904661
H     -1.537562    1.304848    2.042092

