59
-586892.0771032994
C     -9.182640   -0.214822    6.561326
C     -8.652112    0.254526    5.193107
C     -8.567778    1.789723    5.188792
C     -7.314724   -0.449716    4.860441
C     -7.450229   -2.009360    4.858933
C     -6.410631   -2.558818    3.843637
C     -5.572032   -1.324621    3.477391
C     -4.672071   -1.371389    2.233995
C     -3.725276   -2.584118    2.262852
C     -2.720837   -2.573509    1.105078
C     -1.942966   -1.251549    1.059570
C     -2.876586   -0.004604    0.927139
C     -3.635401    0.013979   -0.419637
C     -3.873620   -0.037635    2.139742
C     -4.816113    1.184420    2.224379
C     -5.764624    1.153682    3.441661
C     -6.589727   -0.147225    3.504607
C     -7.598680   -0.205149    2.335930
C     -0.817156   -1.282938    0.002991
C      0.000000    0.000000    0.000000
O      1.216942   -0.000000    0.000000
C     -0.816601    1.283467    0.002991
C     -1.973323    1.254061    1.024901
H     -9.344907   -1.296623    6.595714
H    -10.137327    0.271505    6.794012
H     -8.476911    0.043021    7.362286
H     -9.391257   -0.045102    4.435198
H     -7.780262    2.144753    5.866031
H     -9.515095    2.225824    5.528317
H     -8.360460    2.194951    4.194490
H     -6.604683   -0.172537    5.656383
H     -8.467272   -2.303873    4.572622
H     -7.284200   -2.416118    5.861495
H     -5.803396   -3.365187    4.267381
H     -6.906052   -2.971713    2.955775
H     -4.897639   -1.145278    4.332796
H     -5.310215   -1.469798    1.343778
H     -3.172295   -2.581403    3.215012
H     -4.307161   -3.513890    2.246655
H     -2.015507   -3.408080    1.214365
H     -3.240884   -2.737124    0.150712
H     -1.445516   -1.147309    2.038171
H     -2.957707   -0.051577   -1.276537
H     -4.345005   -0.813211   -0.511095
H     -4.200869    0.944965   -0.533445
H     -3.239221   -0.004737    3.042584
H     -4.225979    2.106534    2.275845
H     -5.413164    1.260120    1.307368
H     -5.170007    1.239555    4.363233
H     -6.406853    2.040406    3.404445
H     -7.108104   -0.181668    1.358668
H     -8.213949   -1.110491    2.366434
H     -8.280285    0.651998    2.373906
H     -0.136849   -2.122159    0.181167
H     -1.245690   -1.423245   -1.000623
H     -1.222335    1.418179   -1.010545
H     -0.140548    2.123127    0.190964
H     -2.569400    2.164249    0.896377
H     -1.547740    1.302165    2.037370

