29
-363487.095739292
O      1.215865   -0.000000    0.000000
C      0.000000    0.000000    0.000000
C     -0.849068   -1.269971   -0.001408
C     -1.742484   -1.260175    1.265137
C     -1.740074   -1.258035   -1.268443
C     -2.631187   -0.000000   -1.260938
C     -1.740073    1.258035   -1.268443
C     -0.849068    1.269970   -0.001408
C     -1.742484    1.260174    1.265137
C     -2.637800   -0.000000    1.271711
O     -3.575285   -0.000001    2.351512
C     -3.070305    0.000016    3.674450
C     -3.511098   -0.000000    0.003834
H     -0.178314   -2.134829    0.002343
H     -2.376873   -2.155685    1.284693
H     -1.107855   -1.290510    2.159333
H     -2.357834   -2.165829   -1.286513
H     -1.112939   -1.277924   -2.169243
H     -3.271619   -0.000000   -2.151996
H     -1.112938    1.277923   -2.169243
H     -2.357833    2.165828   -1.286514
H     -0.178314    2.134829    0.002343
H     -1.107854    1.290509    2.159333
H     -2.376873    2.155684    1.284694
H     -2.469832    0.892376    3.900409
H     -2.469812   -0.892327    3.900425
H     -3.945992    0.000012    4.329083
H     -4.163179    0.882066    0.025853
H     -4.163180   -0.882066    0.025853

