%nprocshared=10
%mem=12GB
%chk= 0.chk
# freq b3lyp/6-31g(d)

good luck!

0 1
Si    -3.658633    2.024365   -0.315825
C     -3.508141    3.439607    0.938785
C     -3.350391    2.739633   -2.044605
C     -2.336745    0.724545    0.187501
C     -2.312077   -0.733213   -0.411171
C     -2.425571   -0.736544   -1.948464
C     -3.407985   -1.630332    0.181018
C     -0.902690   -1.229378    0.000935
C      0.000000    0.000000    0.000000
O      1.211874   -0.000000    0.000000
C     -0.890521    1.248014    0.000935
C     -5.420933    1.331430   -0.225899
C     -6.167347    1.045628   -1.384070
C     -7.464641    0.533385   -1.309607
C     -8.051232    0.296460   -0.066028
C     -7.334924    0.577135    1.099465
C     -6.039615    1.088682    1.015952
H     -3.682344    3.100411    1.966907
H     -2.510328    3.893548    0.907904
H     -4.238276    4.228818    0.724587
H     -2.362213    3.211070   -2.102314
H     -4.091940    3.516809   -2.265580
H     -3.403556    1.992573   -2.843018
H     -2.487247    0.595328    1.272333
H     -1.673313   -0.095092   -2.423182
H     -2.283916   -1.751422   -2.339329
H     -3.414540   -0.395227   -2.273274
H     -3.353399   -1.649219    1.276693
H     -4.407704   -1.285371   -0.099241
H     -3.296700   -2.662175   -0.175230
H     -0.492243   -2.024712   -0.630179
H     -0.921859   -1.615155    1.031805
H     -0.740183    1.756774   -0.961424
H     -0.560259    1.949139    0.774588
H     -5.734954    1.228494   -2.365189
H     -8.017248    0.322827   -2.221905
H     -9.060964   -0.101192   -0.004439
H     -7.786675    0.399973    2.072352
H     -5.504450    1.302966    1.939139


