%nprocshared=10
%mem=12GB
%chk= 2.chk
# freq b3lyp/6-31g(d)

good luck!

0 1
Si    -3.665880    2.013157   -0.301289
C     -3.386088    2.726288   -2.035584
C     -5.429861    1.322256   -0.210098
C     -2.336863    0.716388    0.186681
C     -2.309203   -0.738873   -0.415720
C     -2.417389   -0.740184   -1.953275
C     -3.403186   -1.639617    0.174555
C     -0.899857   -1.233095   -0.000732
C      0.000000    0.000000    0.000000
O      1.211835   -0.000000   -0.000000
C     -0.893471    1.244605   -0.000732
C     -3.507778    3.410266    0.972476
C     -3.942120    3.222761    2.299069
C     -3.818550    4.228406    3.258236
C     -3.253396    5.457291    2.911253
C     -2.816461    5.670524    1.603560
C     -2.944256    4.658085    0.649824
H     -2.369938    3.110314   -2.180811
H     -4.078820    3.556820   -2.217631
H     -3.565650    1.973784   -2.810915
H     -6.154059    2.131575   -0.362565
H     -5.612559    0.566287   -0.982578
H     -5.649320    0.863458    0.760649
H     -2.482585    0.584771    1.271768
H     -2.276436   -1.754399   -2.346154
H     -1.661797   -0.099296   -2.422917
H     -3.402523   -0.393927   -2.285406
H     -4.405047   -1.301558   -0.109719
H     -3.352177   -1.657369    1.270258
H     -3.290414   -2.671592   -0.180289
H     -0.486460   -2.026963   -0.631832
H     -0.920112   -1.619239    1.029883
H     -0.745989    1.751665   -0.964577
H     -0.571858    1.951819    0.770385
H     -4.389720    2.275045    2.594259
H     -4.164082    4.055063    4.274418
H     -3.155588    6.243341    3.655624
H     -2.376866    6.625032    1.324836
H     -2.598838    4.850107   -0.363370


