25
-580030.4741398967
O      1.215032    0.000000   -0.000000
C      0.000000    0.000000    0.000000
C     -0.850978   -1.268875   -0.008486
C     -1.768953   -1.258582    1.243066
C     -1.723292   -1.259043   -1.289310
C     -2.613217    0.000001   -1.299846
C     -1.723291    1.259044   -1.289310
C     -0.850977    1.268875   -0.008486
C     -1.768952    1.258583    1.243066
C     -2.649386    0.000001    1.207570
Cl    -3.738629    0.000001    2.695392
C     -3.527130    0.000001   -0.052002
H     -0.185011   -2.136907    0.012077
H     -2.397841   -2.156510    1.250155
H     -1.169651   -1.270373    2.160407
H     -2.340810   -2.166644   -1.315698
H     -1.082583   -1.280049   -2.180006
H     -3.239361    0.000001   -2.200766
H     -1.082582    1.280050   -2.180007
H     -2.340809    2.166646   -1.315698
H     -0.185010    2.136907    0.012077
H     -2.397840    2.156511    1.250155
H     -1.169650    1.270374    2.160407
H     -4.176269   -0.883461   -0.050896
H     -4.176269    0.883463   -0.050896

