22
-253852.04559820198
O      1.215129   -0.000000   -0.000000
C      0.000000    0.000000    0.000000
C     -0.825982   -1.274607   -0.036108
C     -2.081028   -1.198965    0.855447
C     -2.995282   -2.409642    0.641617
C     -2.818146    0.122719    0.602839
N     -1.949154    1.267382    0.864509
C     -2.672732    2.530023    0.839229
C     -0.798288    1.301586   -0.036108
H     -0.181032   -2.120862    0.220560
H     -1.145969   -1.413480   -1.082500
H     -1.752813   -1.183692    1.903524
H     -3.863813   -2.374192    1.309827
H     -3.366744   -2.448416   -0.390462
H     -2.460425   -3.345771    0.837815
H     -3.216262    0.134867   -0.435827
H     -3.682220    0.194119    1.274182
H     -1.995593    3.347545    1.109370
H     -3.485392    2.503872    1.573036
H     -3.109868    2.761931   -0.152339
H     -1.103522    1.473007   -1.094254
H     -0.127923    2.118345    0.246484

