%nprocshared=8
%mem=4GB
%chk= 0.chk
# freq b3lyp/6-31g(d)

good luck!

0 1
O      1.212342   -0.000000    0.000000
C      0.000000    0.000000    0.000000
C     -0.885925   -1.257088   -0.013281
C     -0.346143   -2.355194   -0.931295
C     -2.287155   -0.708606   -0.335927
C     -2.333856    0.735344    0.247936
C     -3.396229    1.594169   -0.450080
C     -2.618578    0.698058    1.762551
C     -0.894765    1.241888   -0.013281
H     -0.872366   -1.634458    1.021470
H     -0.381785   -2.040874   -1.981162
H     -0.931349   -3.276006   -0.834844
H      0.696236   -2.575721   -0.682299
H     -3.095691   -1.337077    0.054688
H     -2.414149   -0.662041   -1.427096
H     -3.220073    1.642294   -1.531646
H     -4.400539    1.181047   -0.292526
H     -3.395701    2.620812   -0.063487
H     -1.875182    0.106854    2.310282
H     -3.604511    0.261908    1.963888
H     -2.607419    1.710151    2.184682
H     -0.812147    1.685649   -1.016817
H     -0.537094    1.996709    0.695290


