28
-386636.24574602814
O      1.208209   -0.000000   -0.000000
C      0.000000    0.000000    0.000000
C     -0.901343   -1.237819    0.006668
C     -2.221430   -0.743426    0.613742
C     -2.374873    0.724784    0.134990
C     -2.967129    0.826138   -1.323241
C     -2.006073    1.728309   -2.038018
C     -2.021215    2.414292   -3.376692
C     -0.672219    3.180743   -3.391281
C     -0.898233    1.972528   -1.315957
C     -0.899799    1.260605    0.006668
C      0.003960    2.897428   -2.027423
O      1.051492    3.380107   -1.644007
C     -3.216193    1.564981    1.100844
H     -1.037167   -1.555637   -1.037965
H     -0.425075   -2.067135    0.536578
H     -3.084595   -1.359640    0.339202
H     -2.149662   -0.762692    1.708979
H     -3.020287   -0.156627   -1.816200
H     -3.994393    1.215434   -1.319957
H     -2.885653    3.085140   -3.472799
H     -2.105093    1.691975   -4.199948
H     -0.795955    4.261469   -3.516558
H     -0.006161    2.844872   -4.193695
H     -0.587060    1.903398    0.838981
H     -2.769925    1.581570    2.102116
H     -3.299666    2.601658    0.752672
H     -4.231564    1.159016    1.192011

