29
-327102.18996585545
O      1.210269    0.000000   -0.000000
C      0.000000    0.000000    0.000000
C     -0.908303   -1.250791   -0.013379
N     -0.296211   -2.421402   -0.605859
C      0.061213   -2.295482   -2.020465
C      0.963076   -3.458757   -2.448250
C      0.290351   -4.807863   -2.162814
C     -0.153306   -4.880595   -0.695597
C     -1.011717   -3.666176   -0.324339
C     -2.258115   -0.698535   -0.546501
C     -2.336069    0.712268    0.074154
C     -0.893461    1.244583   -0.013379
H     -1.061283   -1.478965    1.056321
H      0.590713   -1.348940   -2.161623
H     -0.835806   -2.277643   -2.673096
H      1.906377   -3.388551   -1.892382
H      1.201106   -3.361692   -3.515117
H     -0.589640   -4.920062   -2.813940
H      0.967251   -5.637138   -2.402882
H     -0.719852   -5.801008   -0.504837
H      0.729803   -4.896299   -0.044110
H     -1.975750   -3.723039   -0.871340
H     -1.251673   -3.689591    0.746068
H     -2.230478   -0.628342   -1.641579
H     -3.111250   -1.328797   -0.277715
H     -3.061022    1.358306   -0.430138
H     -2.646206    0.636970    1.124293
H     -0.714823    1.760774   -0.966933
H     -0.606479    1.942188    0.779951

