29
-327103.056768171
O      1.213621    0.000000    0.000000
C      0.000000    0.000000    0.000000
C     -0.898694   -1.263193   -0.016821
N     -0.423918   -2.415673   -0.769869
C      0.565027   -3.233101   -0.051886
C      0.769453   -4.573561   -0.765741
C      1.189015   -4.358102   -2.226100
C      0.194879   -3.425912   -2.931121
C      0.014680   -2.124630   -2.141186
C     -2.285303   -0.717083   -0.416611
C     -2.322228    0.698293    0.198464
C     -0.896825    1.240648   -0.016821
H     -0.965689   -1.576404    1.037472
H      0.187906   -3.406573    0.963801
H      1.531745   -2.709172    0.045019
H     -0.171790   -5.138187   -0.732619
H      1.523975   -5.161403   -0.227693
H      1.262087   -5.317183   -2.753895
H      2.190746   -3.904630   -2.252321
H      0.537286   -3.190055   -3.946784
H     -0.779733   -3.923625   -3.020084
H     -0.743876   -1.502120   -2.629108
H      0.961162   -1.554293   -2.152925
H     -2.366413   -0.652093   -1.508679
H     -3.096176   -1.363012   -0.068658
H     -2.538278    0.631601    1.272596
H     -3.094176    1.333365   -0.246564
H     -0.562122    1.982690    0.714827
H     -0.795048    1.704078   -1.008944

