29
-327101.44033470063
O      1.212090    0.000000    0.000000
C      0.000000    0.000000    0.000000
C     -0.911487   -1.254329    0.004384
N     -1.050257   -1.644833   -1.414578
C     -2.229724   -2.462807   -1.724525
C     -2.351711   -2.698758   -3.235323
C     -1.086517   -3.345232   -3.809930
C      0.144162   -2.526947   -3.403714
C      0.176255   -2.307999   -1.889357
C     -2.189598   -0.683213    0.640840
C     -2.331200    0.731464    0.038176
C     -0.884451    1.253159    0.004384
H     -0.467124   -2.063852    0.609127
H     -3.129573   -1.947344   -1.380474
H     -2.190633   -3.438713   -1.197465
H     -3.233419   -3.322677   -3.429534
H     -2.524142   -1.730796   -3.724307
H     -0.988973   -4.367701   -3.416138
H     -1.157925   -3.432374   -4.901205
H      1.068361   -3.029835   -3.714860
H      0.122324   -1.549105   -3.902564
H      0.303102   -3.285566   -1.378601
H      1.035853   -1.694443   -1.612186
H     -3.078407   -1.305650    0.517090
H     -2.010282   -0.604800    1.721842
H     -3.002352    1.368160    0.622883
H     -2.734348    0.665689   -0.977842
H     -0.645951    1.887977   -0.855065
H     -0.633527    1.831434    0.903404

