35
-376430.231822755
O      1.213483   -0.000000    0.000000
C      0.000000    0.000000    0.000000
C     -0.891729   -1.245130    0.000515
C     -0.177827   -2.516081    0.426879
C     -2.115187   -0.721870    0.830658
C     -3.330320   -1.665646    0.837998
C     -1.773569   -0.414880    2.302945
C     -1.466711   -1.263025   -1.455701
C     -2.461496   -0.065614   -1.490598
C     -2.320309    0.540386   -0.072179
C     -0.937612    1.244682    0.000515
N     -0.660141    2.203271   -1.073792
C      0.664342    2.816485   -0.946956
C     -1.679417    3.248754   -1.126871
H      0.180953   -2.448155    1.459829
H      0.697512   -2.691299   -0.207186
H     -0.838369   -3.387029    0.348413
H     -4.180531   -1.177662    1.330890
H     -3.659127   -1.969903   -0.158165
H     -3.105346   -2.576866    1.404376
H     -2.578278    0.165164    2.771218
H     -0.842042    0.142984    2.436055
H     -1.671466   -1.346897    2.870577
H     -1.963960   -2.221739   -1.639363
H     -0.668432   -1.170317   -2.199296
H     -2.192830    0.659474   -2.260822
H     -3.487082   -0.394749   -1.681897
H     -3.155341    1.176945    0.235156
H     -0.829833    1.739398    0.987006
H      0.840753    3.459009   -1.816394
H      0.754235    3.440362   -0.035410
H      1.434592    2.047657   -0.909478
H     -1.429635    3.947558   -1.932120
H     -2.663168    2.824243   -1.344747
H     -1.752564    3.827658   -0.184657

