23
-789831.012466121
O      1.213836    0.000000   -0.000000
C      0.000000    0.000000    0.000000
C     -0.803621   -1.293190    0.013132
S     -1.767637   -1.546859   -1.538238
C     -2.780203   -0.000001   -1.515736
C     -3.714824   -0.000003   -2.704263
C     -3.216275   -0.000038   -4.015314
C     -4.092017   -0.000047   -5.100523
C     -5.472337   -0.000025   -4.890368
C     -5.974979    0.000005   -3.588265
C     -5.100463    0.000015   -2.501747
S     -1.767640    1.546859   -1.538237
C     -0.803621    1.293189    0.013132
H     -0.113757   -2.136604    0.086417
H     -1.487113   -1.311102    0.871941
H     -3.364419   -0.000003   -0.590140
H     -2.142754   -0.000059   -4.180647
H     -3.694382   -0.000073   -6.111609
H     -6.152940   -0.000033   -5.737368
H     -7.047868    0.000021   -3.416616
H     -5.495575    0.000036   -1.488764
H     -0.113758    2.136604    0.086416
H     -1.487113    1.311102    0.871942

