39
-425021.6224428385
O      1.217358   -0.000000    0.000000
C      0.000000    0.000000    0.000000
C     -0.852559   -1.254001   -0.001866
C     -1.649757   -1.241808   -1.328987
C     -2.434723    0.054876   -1.617164
C     -1.639263    1.354118   -1.344421
N     -2.508802    2.553098   -1.364593
C     -3.439289    2.592904   -2.503839
C     -4.403300    3.781093   -2.404940
C     -3.647884    5.109937   -2.318199
C     -2.621578    5.035448   -1.184419
C     -1.726575    3.799868   -1.327379
C     -0.838364    1.269763   -0.001866
C     -1.697966    1.293403    1.291706
C     -2.513997    0.010700    1.544566
C     -1.706050   -1.277308    1.293310
H     -0.184443   -2.122150   -0.000253
H     -2.341555   -2.093909   -1.352728
H     -0.930405   -1.408050   -2.142253
H     -2.734369    0.025506   -2.670018
H     -3.361254    0.075051   -1.036600
H     -0.873322    1.436944   -2.144049
H     -2.889749    2.645806   -3.467745
H     -4.027743    1.674347   -2.520925
H     -5.024823    3.651266   -1.509006
H     -5.075779    3.766853   -3.272063
H     -4.341740    5.945774   -2.165263
H     -3.128485    5.298036   -3.269332
H     -3.141529    4.983364   -0.218576
H     -1.990741    5.933077   -1.165134
H     -1.104545    3.899172   -2.241648
H     -1.038727    3.768355   -0.480242
H     -0.124763    2.096425    0.038227
H     -1.008557    1.447599    2.133101
H     -2.366022    2.160444    1.259568
H     -2.868235    0.012953    2.583378
H     -3.416545    0.015675    0.926927
H     -1.016637   -1.436490    2.133899
H     -2.374977   -2.148113    1.274134

