23
-361187.2014525975
O      1.209812   -0.000000    0.000000
C      0.000000    0.000000    0.000000
C     -0.938313   -1.201101   -0.036303
C     -2.145062   -0.693632   -0.890003
C     -1.932674    0.831841   -1.168527
C     -0.935260    1.210984   -0.036303
C     -1.871599    1.208590    1.260481
C     -3.259467    0.828448    0.669016
C     -3.266517    1.454609   -0.732697
C     -3.059236   -0.695969    0.376084
C     -1.868332   -1.203479    1.251728
C     -1.540763   -0.003940    2.133883
O     -1.160135   -0.006062    3.282258
H     -0.451340   -2.144852   -0.280990
H     -2.448714   -1.284560   -1.756241
H     -1.576072    1.072159   -2.173662
H     -0.402336    2.153719   -0.165584
H     -1.828298    2.150073    1.809303
H     -4.101783    1.065701    1.324324
H     -4.113112    1.119041   -1.344598
H     -3.253929    2.550304   -0.721584
H     -3.975982   -1.288465    0.358952
H     -1.945726   -2.148674    1.788662

