32
-398839.30874130985
O      1.215732   -0.000000    0.000000
C      0.000000    0.000000    0.000000
C     -0.834803   -1.277252    0.028894
C      0.007041   -2.529506   -0.214703
C     -2.032246   -1.141399   -0.935375
C     -2.781615    0.176444   -0.738267
N     -1.880381    1.310644   -0.945760
C     -2.579109    2.597358   -0.964908
C     -3.479996    2.771030   -2.173529
C     -3.010855    2.464456   -3.458646
C     -3.820332    2.665112   -4.575764
C     -5.111197    3.179597   -4.426175
C     -5.587261    3.486283   -3.151508
C     -4.775937    3.278469   -2.033441
C     -0.788534    1.310317    0.028894
H     -1.250997   -1.315838    1.051302
H      0.438622   -2.517413   -1.221568
H      0.835571   -2.590362    0.495817
H     -0.607617   -3.431123   -0.116183
H     -2.718196   -1.984491   -0.787044
H     -1.672804   -1.191884   -1.971105
H     -3.237377    0.205284    0.274540
H     -3.599453    0.253309   -1.460614
H     -1.807762    3.379238   -0.977562
H     -3.166810    2.757894   -0.039124
H     -2.010201    2.056285   -3.568753
H     -3.443453    2.421836   -5.565939
H     -5.741176    3.336952   -5.297668
H     -6.591757    3.881414   -3.024020
H     -5.153834    3.513930   -1.040682
H     -1.158287    1.457650    1.068810
H     -0.091893    2.124072   -0.191363

