32
-398837.95231173723
O      1.215940    0.000000   -0.000000
C      0.000000    0.000000    0.000000
C     -0.834031   -1.278136    0.029029
C      0.011477   -2.531933   -0.191597
C     -2.015046   -1.151050   -0.956637
C     -2.780270    0.160574   -0.765897
N     -1.878844    1.295463   -0.950124
C     -2.548077    2.596883   -1.101006
C     -3.312500    3.118993    0.108843
C     -2.680248    3.924710    1.066465
C     -3.368553    4.377016    2.193451
C     -4.708146    4.031970    2.379832
C     -5.354350    3.237889    1.430510
C     -4.660836    2.788206    0.306219
C     -0.791852    1.307509    0.029029
H     -1.267372   -1.308526    1.044484
H     -0.604662   -3.432961   -0.096483
H      0.828202   -2.587456    0.532970
H      0.460020   -2.527174   -1.191061
H     -1.635102   -1.194397   -1.985254
H     -2.695561   -2.001163   -0.822006
H     -3.577249    0.235641   -1.515430
H     -3.270709    0.165925    0.227432
H     -3.231637    2.505534   -1.954128
H     -1.775032    3.321998   -1.384134
H     -1.641053    4.211881    0.920794
H     -2.860633    5.004260    2.921457
H     -5.247386    4.386383    3.254228
H     -6.400772    2.974551    1.561646
H     -5.176410    2.182138   -0.435728
H     -0.098035    2.121626   -0.201378
H     -1.151657    1.459278    1.068766

