32
-398839.1313162643
O      1.215527   -0.000000    0.000000
C      0.000000    0.000000    0.000000
C     -0.832204   -1.279733    0.030008
C      0.011610   -2.530862   -0.211508
C     -2.026638   -1.146678   -0.937864
C     -2.782782    0.167558   -0.738476
N     -1.888479    1.305884   -0.941655
C     -2.600979    2.584550   -0.959589
C     -1.769070    3.731338   -1.504428
C     -1.784515    4.983256   -0.880916
C     -1.063442    6.055181   -1.412077
C     -0.309130    5.882468   -2.572533
C     -0.280627    4.632972   -3.197800
C     -1.006942    3.566874   -2.669280
C     -0.791735    1.307669    0.030008
H     -1.250751   -1.318522    1.051292
H     -0.601538   -3.433619   -0.113163
H      0.839102   -2.589599    0.500392
H      0.445179   -2.518727   -1.217506
H     -1.662457   -1.190413   -1.972296
H     -2.709565   -1.993385   -0.795835
H     -3.247352    0.184470    0.270414
H     -3.599045    0.240296   -1.466267
H     -3.483519    2.447396   -1.599228
H     -2.983958    2.853858    0.044967
H     -2.365649    5.121213    0.028562
H     -1.086167    7.021029   -0.914075
H      0.257092    6.713122   -2.985433
H      0.309288    4.489566   -4.099439
H     -0.979028    2.590664   -3.144737
H     -1.167364    1.451573    1.068327
H     -0.102216    2.125422   -0.188548

