32
-351774.42923622293
O      1.215220   -0.000000    0.000000
C      0.000000    0.000000    0.000000
C     -0.852760   -1.281623   -0.008225
N     -0.053239   -2.492410    0.097718
C      0.749881   -2.835501   -1.079924
C      1.787708   -3.903654   -0.717880
C      1.110181   -5.148507   -0.130029
C      0.192023   -4.755795    1.035345
C     -0.783015   -3.648833    0.615600
C     -1.865972   -1.211800   -1.191747
C     -2.714284    0.067181   -1.148284
C     -1.830508    1.320900   -1.162405
C     -0.807269    1.295390   -0.008225
H     -1.452648   -1.223857    0.914434
H      0.119598   -3.216067   -1.909685
H      1.254338   -1.932547   -1.428455
H      2.369637   -4.164988   -1.610991
H      2.482723   -3.475139    0.014966
H      1.858446   -5.880464    0.198889
H      0.511913   -5.639098   -0.912639
H      0.797489   -4.386870    1.873130
H     -0.373865   -5.624857    1.395087
H     -1.497489   -4.062888   -0.126533
H     -1.374840   -3.326617    1.481587
H     -2.509319   -2.099358   -1.162004
H     -1.317306   -1.251759   -2.142037
H     -3.333506    0.066148   -0.238909
H     -3.408957    0.085287   -1.997375
H     -1.291638    1.375699   -2.118480
H     -2.441657    2.229019   -1.094962
H     -0.105864    2.133092   -0.062773
H     -1.345692    1.369625    0.948766

