25
-278518.34783051105
O      1.216255    0.000000   -0.000000
C      0.000000    0.000000    0.000000
C     -0.812948   -1.308119    0.039547
N     -1.630365   -1.414894   -1.181468
C     -2.540573   -2.556536   -1.170245
C     -0.785986   -1.462300   -2.375296
C     -1.658778   -1.255825    1.334611
C     -2.572918   -0.022362    1.383450
C     -1.753870    1.272892    1.282253
C     -0.833182    1.270764    0.039547
H     -0.085735   -2.138416    0.110101
H     -2.022857   -3.525876   -1.033972
H     -3.290120   -2.453166   -0.381626
H     -3.073135   -2.591919   -2.126243
H     -0.128287   -2.351873   -2.402344
H     -0.146798   -0.576368   -2.430341
H     -1.420464   -1.477503   -3.267540
H     -0.956697   -1.223920    2.179528
H     -2.232099   -2.181102    1.456782
H     -3.293221   -0.066710    0.557400
H     -3.151152   -0.026091    2.315865
H     -1.134263    1.382486    2.183255
H     -2.414684    2.147328    1.247610
H     -0.159663    2.132605    0.032109
H     -1.456163    1.298831   -0.863638

