%nprocshared=8
%mem=4GB
%chk= 0.chk
# freq b3lyp/6-31g(d)

good luck!

0 1
O      1.217733    0.000000    0.000000
C      0.000000    0.000000    0.000000
C     -0.815857   -1.296584   -0.012529
C      0.074893   -2.539064   -0.011893
C     -1.804046   -1.267010   -1.204682
C     -2.668785   -0.000000   -1.211197
C     -1.804046    1.267010   -1.204682
C     -0.815857    1.296584   -0.012529
C      0.074892    2.539064   -0.011892
H     -1.423216   -1.285192    0.907907
H      0.751535   -2.540180    0.847439
H     -0.535288   -3.448633    0.023164
H      0.695189   -2.574219   -0.913641
H     -2.434209   -2.164769   -1.171675
H     -1.229065   -1.324065   -2.140590
H     -3.324407   -0.000000   -0.328058
H     -3.328263   -0.000000   -2.088076
H     -2.434209    2.164768   -1.171675
H     -1.229065    1.324065   -2.140590
H     -1.423216    1.285192    0.907907
H      0.695188    2.574219   -0.913641
H     -0.535289    3.448633    0.023164
H      0.751534    2.540180    0.847440


