%nprocshared=10
%mem=12GB
%chk= 0.chk
# freq b3lyp/6-31g(d)

good luck!

0 1
O      1.215586    0.000000   -0.000000
C      0.000000    0.000000    0.000000
C     -0.807998   -1.294693   -0.005019
C     -1.922051   -1.286457    1.077024
C     -2.745236   -2.563147    1.052772
C     -3.507274   -2.958026   -0.051057
F     -3.533166   -2.193095   -1.161853
C     -4.258027   -4.130012   -0.067187
F     -4.968101   -4.465975   -1.149825
C     -4.267294   -4.954426    1.055394
F     -4.984571   -6.080858    1.055389
C     -3.524348   -4.595532    2.175818
F     -3.526909   -5.379013    3.259565
C     -2.781297   -3.416989    2.159052
F     -2.080760   -3.113829    3.266523
C     -2.791447   -0.013326    0.966184
C     -1.927030    1.250721    1.071142
C     -0.822753    1.280842   -0.005019
H     -1.270311   -1.398989   -0.995357
H     -0.119640   -2.132552    0.136732
H     -1.426108   -1.256983    2.053222
H     -3.331202   -0.018890    0.011370
H     -3.547180   -0.018093    1.760716
H     -2.554765    2.144729    0.980972
H     -1.463141    1.293701    2.066151
H     -0.146318    2.130684    0.122299
H     -1.292341    1.371484   -0.996655


