22
-266930.2278829768
O      1.212202    0.000000   -0.000000
C      0.000000    0.000000    0.000000
C     -0.900653   -1.245268    0.005287
C     -2.246354   -0.760321    0.570819
C     -2.356979    0.736819    0.125359
C     -0.896944    1.236496    0.005287
C     -1.058727    1.980837    1.376499
C     -2.565626    1.571995    1.424597
C     -2.988334    0.579222    2.512497
C     -2.283174   -0.735382    2.125628
H     -0.434794   -2.069339    0.554411
H     -1.006724   -1.570525   -1.040763
H     -3.085418   -1.347122    0.184039
H     -3.030768    0.896363   -0.721020
H     -0.640980    1.900304   -0.825413
H     -0.437965    1.585057    2.187656
H     -0.881119    3.057576    1.311428
H     -3.242045    2.427826    1.341075
H     -2.733292    0.914305    3.525427
H     -4.078503    0.448609    2.478521
H     -2.778477   -1.620217    2.539817
H     -1.259259   -0.739919    2.522934

