59
-586888.9449163092
C     -8.183390    0.790373    5.054296
C     -8.211933    0.620763    3.523627
C     -7.049989   -0.303206    3.057973
C     -7.324257   -1.838956    3.033860
C     -6.320567   -2.442862    2.002759
C     -5.434202   -1.250534    1.594945
C     -4.601364   -1.318651    0.308245
C     -3.705885   -2.569337    0.266421
C     -2.780390   -2.584766   -0.957530
C     -1.939771   -1.298758   -1.081009
C     -0.819806   -1.279161   -0.005887
C      0.000000    0.000000    0.000000
C     -0.824511    1.275616   -0.005887
C     -1.886001    1.223079   -1.120592
O      1.216956   -0.000000   -0.000000
C     -2.829186   -0.010308   -1.075620
C     -3.749886   -0.015180    0.195622
C     -4.620338    1.256493    0.349171
C     -5.518747    1.241046    1.604788
C     -6.386501   -0.027152    1.672912
C     -7.432860   -0.010925    0.537343
C     -3.662891    0.038030   -2.377709
C     -9.627543    0.197027    3.091233
H     -8.327668   -0.173111    5.560176
H     -7.227282    1.205156    5.394668
H     -8.980410    1.462900    5.393775
H     -8.021006    1.613701    3.088742
H     -6.238892   -0.141577    3.783802
H     -8.353167   -2.054870    2.731582
H     -7.197105   -2.277758    4.029332
H     -6.852666   -2.850271    1.133825
H     -5.736402   -3.266347    2.426135
H     -4.709924   -1.110866    2.415960
H     -5.286405   -1.374352   -0.549524
H     -3.110899   -2.616003    1.190460
H     -4.328567   -3.472594    0.265263
H     -2.111967   -3.454923   -0.914125
H     -3.384727   -2.712113   -1.864799
H     -1.429895   -1.323619   -2.055652
H     -1.256659   -1.385548    0.997130
H     -0.138941   -2.124367   -0.149916
H     -1.309645    1.380139    0.975573
H     -0.152044    2.129235   -0.133449
H     -1.362151    1.205593   -2.086938
H     -2.469255    2.150396   -1.116998
H     -3.084087   -0.030520    1.073326
H     -3.975223    2.141482    0.400573
H     -5.244975    1.392890   -0.541506
H     -4.882962    1.284260    2.501713
H     -6.136926    2.149379    1.617399
H     -8.074328   -0.897683    0.549474
H     -8.081130    0.867694    0.630023
H     -6.970653    0.037021   -0.452671
H     -4.187771    0.994202   -2.477454
H     -3.006396   -0.063070   -3.250441
H     -4.412130   -0.755846   -2.438360
H     -9.712237    0.024524    2.014958
H    -10.348383    0.979148    3.358408
H     -9.943320   -0.720246    3.602361

