59
-586890.773436449
C     -8.167859    1.955683    3.571768
C     -8.318728    0.425749    3.557265
C     -7.034457   -0.328627    3.136793
C     -7.237018   -1.880990    3.121434
C     -6.283155   -2.457177    2.039039
C     -5.414907   -1.253881    1.640946
C     -4.595380   -1.317132    0.344600
C     -3.703384   -2.570237    0.290642
C     -2.787845   -2.584208   -0.940995
C     -1.947265   -1.298866   -1.070509
C     -0.819223   -1.279646   -0.003922
C      0.000000    0.000000    0.000000
C     -0.824059    1.276005   -0.003922
C     -1.894658    1.222936   -1.109602
O      1.216993   -0.000000    0.000000
C     -2.836683   -0.010882   -1.057056
C     -3.745072   -0.016980    0.222489
C     -4.624708    1.243832    0.381460
C     -5.501971    1.231736    1.651615
C     -6.377090   -0.034482    1.745066
C     -7.453916   -0.029491    0.637085
C     -3.682640    0.038578   -2.351143
C     -8.790206   -0.045259    4.946196
H     -9.074272    2.425711    3.972202
H     -8.000432    2.369562    2.573534
H     -7.328258    2.264820    4.207692
H     -9.112409    0.171606    2.838937
H     -6.268115   -0.094951    3.893567
H     -7.030674   -2.310908    4.106680
H     -8.280794   -2.127320    2.891454
H     -6.846892   -2.834001    1.176259
H     -5.687555   -3.295474    2.414688
H     -4.683817   -1.117609    2.457021
H     -5.290838   -1.369655   -0.505218
H     -3.100949   -2.621386    1.209642
H     -4.327378   -3.472427    0.290995
H     -3.399686   -2.710023   -1.843415
H     -2.120017   -3.455125   -0.903917
H     -1.445073   -1.323744   -2.049154
H     -0.138470   -2.123903   -0.154025
H     -1.248533   -1.388569    1.002159
H     -0.151661    2.128707   -0.137946
H     -1.301200    1.383191    0.981215
H     -2.478633    2.149805   -1.100390
H     -1.379356    1.206095   -2.080550
H     -3.071698   -0.027689    1.094461
H     -3.991217    2.138161    0.415082
H     -5.267076    1.364955   -0.499189
H     -4.851820    1.277174    2.538019
H     -6.106613    2.145071    1.665372
H     -8.104031   -0.909102    0.689105
H     -8.095357    0.854143    0.728993
H     -7.020461   -0.007877   -0.366828
H     -4.433817   -0.753974   -2.404792
H     -4.206936    0.995627   -2.445422
H     -3.034735   -0.063412   -3.230166
H     -9.708737    0.476118    5.240627
H     -8.030010    0.168756    5.709422
H     -8.996171   -1.119891    4.973191

