37
-377198.4535451901
O      1.217139    0.000000   -0.000000
C      0.000000    0.000000    0.000000
C     -0.835515   -1.299548    0.005738
N     -0.080026   -2.544292   -0.027253
C      0.521167   -2.906626    1.265132
C     -0.476339   -3.514505    2.264391
C     -1.095770   -4.832572    1.792114
C      0.833493   -2.719607   -1.168234
C      0.812687   -4.153163   -1.713857
C      1.785735   -4.350479   -2.880865
C     -1.932717   -1.237420   -1.087437
C     -2.774836    0.042873   -0.993616
C     -1.897452    1.298242   -1.084023
C     -0.806976    1.295553    0.005738
H     -1.376364   -1.279770    0.964445
H      1.034454   -2.045741    1.724532
H      1.298532   -3.652907    1.064834
H     -1.274956   -2.792350    2.486411
H      0.055032   -3.668212    3.213974
H     -1.820521   -5.216201    2.519474
H     -0.325528   -5.601997    1.652375
H     -1.606470   -4.696723    0.833682
H      0.533448   -2.037091   -1.970625
H      1.861589   -2.429939   -0.903808
H     -0.211514   -4.395667   -2.025428
H      1.060127   -4.856780   -0.907521
H      1.544457   -3.684118   -3.718769
H      2.818732   -4.137495   -2.579078
H      1.754350   -5.379371   -3.256394
H     -1.468964   -1.288820   -2.081401
H     -2.557614   -2.131409   -0.986354
H     -3.327673    0.051338   -0.042503
H     -3.528265    0.050595   -1.790915
H     -1.418885    1.338170   -2.072458
H     -2.506738    2.205638   -0.994735
H     -0.111155    2.133181   -0.101426
H     -1.287915    1.386656    0.992035

