37
-377198.089709453
O      1.217239    0.000000    0.000000
C      0.000000    0.000000    0.000000
C     -0.838218   -1.297556    0.006437
N     -0.087234   -2.548005   -0.012679
C      0.842529   -2.727944   -1.143344
C      0.877257   -4.174714   -1.660357
C     -0.430871   -4.636459   -2.307423
C      0.524498   -2.884968    1.283253
C     -0.468193   -3.407983    2.333415
C     -1.171415   -4.707253    1.932626
C     -1.928598   -1.233052   -1.093648
C     -2.770185    0.047953   -1.002238
C     -1.891876    1.302887   -1.087255
C     -0.805390    1.296765    0.006437
H     -1.386471   -1.270058    0.960356
H      1.857283   -2.402653   -0.873612
H      0.528581   -2.073856   -1.963904
H      1.698673   -4.252141   -2.386529
H      1.138301   -4.852212   -0.835975
H     -0.367384   -5.680876   -2.633889
H     -1.263513   -4.550111   -1.602175
H     -0.672715   -4.027556   -3.188281
H      1.261807   -3.673862    1.096444
H      1.086815   -2.030575    1.694742
H      0.091775   -3.559271    3.266700
H     -1.219727   -2.639765    2.563767
H     -1.866809   -5.039698    2.711941
H     -0.445338   -5.513522    1.768421
H     -1.734310   -4.574729    1.003624
H     -2.556540   -2.125257   -0.997293
H     -1.460790   -1.284116   -2.085328
H     -3.519554    0.056570   -1.803314
H     -3.327793    0.055694   -0.053910
H     -2.500778    2.210606   -0.998581
H     -1.409514    1.344198   -2.073782
H     -1.289465    1.386785    0.991206
H     -0.107813    2.133352   -0.097193

