21
-243008.85284423854
C     -4.155151   -0.964145    2.400295
C     -3.100125   -1.632942    1.509345
C     -1.983464   -0.670377    1.102609
C     -0.967243   -1.174072    0.005439
C     -2.006513   -0.671085   -1.052402
C     -2.287377    0.419964    0.019872
C     -0.964015    1.212320    0.005439
C      0.000000    0.000000    0.000000
O      1.209164   -0.000000   -0.000000
H     -4.658405   -0.142253    1.877793
H     -3.701930   -0.551061    3.309603
H     -4.923180   -1.682483    2.707680
H     -3.589906   -2.068543    0.630443
H     -2.647650   -2.474011    2.052330
H     -1.511181   -0.282132    2.016901
H     -0.536279   -2.176063    0.002462
H     -2.830387   -1.371117   -1.199915
H     -1.624927   -0.345835   -2.027002
H     -3.217132    0.993988    0.025353
H     -0.805473    1.839890    0.890142
H     -0.825792    1.834882   -0.886302

