21
-243008.88955112707
C     -2.630061   -2.755902    2.424590
C     -3.110060   -1.617742    1.515283
C     -1.981993   -0.669736    1.106759
C     -0.966450   -1.175282    0.006261
C     -2.008273   -0.671783   -1.048194
C     -2.286358    0.418944    0.025710
C     -0.963974    1.212336    0.006261
C      0.000000    0.000000    0.000000
O      1.209127   -0.000000   -0.000000
H     -2.155447   -2.364838    3.332648
H     -1.896664   -3.392014    1.915659
H     -3.466294   -3.392969    2.733216
H     -3.611810   -2.040951    0.637041
H     -3.871999   -1.027222    2.043826
H     -1.505717   -0.284319    2.020156
H     -0.530827   -2.174873   -0.002430
H     -1.628774   -0.346642   -2.023655
H     -2.833194   -1.370995   -1.193836
H     -3.219021    0.988879    0.038404
H     -0.827937    1.833517   -0.886765
H     -0.802997    1.840997    0.889738

