28
-303191.20788262604
O      1.215395    0.000000    0.000000
C      0.000000    0.000000    0.000000
C     -0.824422   -1.275788   -0.032426
C     -2.078637   -1.203329    0.860848
C     -2.996446   -2.409013    0.634870
C     -2.810722    0.125284    0.618602
N     -1.926270    1.254740    0.898629
C     -2.584531    2.564743    1.083826
C     -3.449045    3.029033   -0.104802
C     -3.376487    2.597770    2.397364
C     -0.800319    1.301293   -0.032426
H     -1.147217   -1.414232   -1.078147
H     -0.177273   -2.121370    0.221190
H     -1.750114   -1.197746    1.908786
H     -3.861312   -2.381617    1.308309
H     -2.462635   -3.349172    0.814412
H     -3.373798   -2.432468   -0.395607
H     -3.199573    0.139708   -0.421078
H     -3.677993    0.182227    1.283388
H     -1.757896    3.279344    1.191925
H     -2.884794    3.025873   -1.044106
H     -3.807433    4.051196    0.061550
H     -4.328589    2.388120   -0.235915
H     -2.757759    2.235727    3.224559
H     -3.693862    3.622775    2.620212
H     -4.282450    1.982123    2.349982
H     -1.113579    1.466574   -1.087489
H     -0.123165    2.115604    0.240021

