28
-303189.92678066297
O      1.215704    0.000000    0.000000
C      0.000000    0.000000    0.000000
C     -0.824821   -1.270630   -0.033761
C     -2.067914   -1.167385    0.866644
C     -2.998087   -2.370616    0.679727
C     -2.799748    0.156150    0.603245
N     -1.941070    1.314459    0.872220
C     -2.670465    2.604915    0.841480
C     -1.730240    3.784844    1.137978
C     -3.819462    2.622313    1.863028
C     -0.785910    1.310450   -0.033761
H     -1.154781   -1.411860   -1.076548
H     -0.184419   -2.119966    0.224063
H     -1.730676   -1.140174    1.911855
H     -2.469492   -3.309865    0.878136
H     -3.856598   -2.319563    1.359769
H     -3.384467   -2.416797   -0.346590
H     -3.668783    0.199232    1.261835
H     -3.184253    0.165098   -0.440411
H     -3.104621    2.761789   -0.168208
H     -2.316329    4.703403    1.244153
H     -1.188366    3.613315    2.075372
H     -0.999733    3.961519    0.344118
H     -4.248015    3.628362    1.917160
H     -4.636118    1.942311    1.605851
H     -3.445724    2.354478    2.858071
H     -1.091762    1.480624   -1.091796
H     -0.081246    2.096511    0.234225

