14
-169769.70322223412
O      1.204684    0.000000    0.000000
C      0.000000    0.000000    0.000000
C     -1.056163   -1.119833   -0.073674
C     -0.797583   -2.267801   -1.043599
C     -2.101972   -0.010683   -0.424503
C     -1.068924    1.103048   -0.073674
H     -1.231648   -1.512605    0.938456
H     -0.627636   -1.893652   -2.059871
H     -1.647294   -2.959174   -1.074724
H      0.091979   -2.831284   -0.742374
H     -3.020291   -0.016121    0.167461
H     -2.367407   -0.015214   -1.486211
H     -1.239417    1.579504    0.899215
H     -0.886992    1.888302   -0.814575

