47
-522168.5037793616
O      1.215866   -0.000000   -0.000000
C      0.000000    0.000000    0.000000
C     -0.850959   -1.324195   -0.036171
N     -0.010561   -2.474051    0.342402
C     -0.267812   -3.862621   -0.103431
C     -1.692841   -4.412849    0.119429
C      0.215378   -4.196837   -1.529746
C      0.704826   -2.374877    1.640046
C      0.112190   -3.198147    2.806993
C      2.199404   -2.693257    1.464292
C     -1.278362   -1.401299   -1.526147
C     -2.597806   -1.641223   -1.931509
C     -2.940549   -1.689525   -3.285636
C     -1.970412   -1.483154   -4.264919
C     -0.652206   -1.233539   -3.877153
C     -0.312667   -1.195227   -2.526372
C     -2.069349   -1.132360    0.934487
C     -2.841059    0.193217    0.827075
C     -1.899156    1.385889    1.001823
C     -0.768476    1.318938   -0.036171
H      0.380818   -4.456393    0.546737
H     -2.419328   -3.946381   -0.552395
H     -2.027623   -4.267359    1.151035
H     -1.706946   -5.490358   -0.087895
H      1.202681   -3.761765   -1.711081
H      0.295899   -5.286681   -1.634298
H     -0.465667   -3.843033   -2.306326
H      0.647530   -1.327790    1.944055
H      0.202486   -4.277933    2.644237
H      0.658479   -2.967212    3.729538
H     -0.945031   -2.972954    2.979292
H      2.740660   -2.542964    2.406896
H      2.356653   -3.735637    1.160202
H      2.624988   -2.038036    0.701995
H     -3.377081   -1.802751   -1.195132
H     -3.971223   -1.885533   -3.569627
H     -2.237663   -1.514129   -5.317778
H      0.116733   -1.071831   -4.628037
H      0.718180   -1.019266   -2.237678
H     -1.670442   -1.197513    1.952901
H     -2.748675   -1.983273    0.828422
H     -3.347870    0.272793   -0.142395
H     -3.626217    0.211545    1.594160
H     -1.470946    1.376066    2.014196
H     -2.440572    2.334183    0.899501
H     -1.200231    1.426043   -1.041057
H     -0.035319    2.120424    0.094185

