47
-522168.13931526773
O      1.217185    0.000000   -0.000000
C      0.000000    0.000000    0.000000
C     -0.830099   -1.332841   -0.011180
N     -0.026262   -2.517728    0.367330
C      0.598133   -2.463356    1.713091
C     -0.034305   -3.471349    2.697652
C      2.134644   -2.553280    1.770871
C      0.505279   -3.413942   -0.679717
C      1.839016   -3.010381   -1.352884
C      0.547416   -4.886564   -0.234341
C     -1.433013   -1.477787   -1.433021
C     -2.592011   -2.239093   -1.655319
C     -3.128836   -2.385202   -2.934222
C     -2.521373   -1.769326   -4.029483
C     -1.365445   -1.016624   -3.829999
C     -0.828705   -0.877282   -2.548592
C     -1.996565   -1.147781    1.025349
C     -2.822546    0.132812    0.849385
C     -1.929853    1.368196    0.997638
C     -0.770100    1.321519   -0.011180
H      0.375131   -1.467216    2.106261
H      0.318326   -3.277516    3.719034
H     -1.125990   -3.395838    2.692319
H      0.228776   -4.503353    2.448451
H      2.591523   -1.795123    1.133499
H      2.511949   -3.538736    1.482984
H      2.457386   -2.376371    2.804147
H     -0.241648   -3.387432   -1.473434
H      1.859082   -1.942303   -1.579280
H      2.710463   -3.233187   -0.731761
H      1.953572   -3.567826   -2.291727
H     -0.420834   -5.200389    0.168792
H      0.779302   -5.518274   -1.100410
H      1.314967   -5.082906    0.520744
H     -3.077950   -2.744003   -0.827605
H     -4.025687   -2.983454   -3.072676
H     -2.942006   -1.879201   -5.025309
H     -0.871987   -0.537292   -4.671310
H      0.084721   -0.303331   -2.426509
H     -2.630930   -2.037705    0.994600
H     -1.567835   -1.128651    2.032103
H     -3.313604    0.141619   -0.132058
H     -3.621349    0.151380    1.601707
H     -2.505137    2.290807    0.854162
H     -1.525707    1.406056    2.018980
H     -1.179151    1.451890   -1.022706
H     -0.043643    2.123209    0.154414

