38
-367144.3757564862
O      1.217424   -0.000000   -0.000000
C      0.000000    0.000000    0.000000
C     -0.832357   -1.284286   -0.004877
C      0.051011   -2.539552   -0.061287
C     -0.680869   -3.852153    0.248994
C      0.258475   -5.063210    0.248438
C     -1.887487   -1.212153   -1.139421
C     -2.774473    0.050642   -1.071296
C     -3.951438    0.065169   -2.110502
C     -4.823324    1.321524   -1.891609
C     -4.856813   -1.167640   -1.893352
C     -3.448748    0.059412   -3.568967
C     -1.867263    1.297697   -1.126562
C     -0.808902    1.288284   -0.004877
H     -1.386309   -1.283291    0.950419
H      0.521410   -2.602249   -1.052612
H      0.878199   -2.408919    0.646336
H     -1.170894   -3.771873    1.230433
H     -1.484871   -4.023204   -0.479305
H     -0.281863   -5.989060    0.476485
H      1.053795   -4.946931    0.994542
H      0.739906   -5.189846   -0.728924
H     -2.502936   -2.114831   -1.092748
H     -1.359257   -1.243733   -2.103062
H     -3.258565    0.049918   -0.079872
H     -5.162048    1.395255   -0.850286
H     -4.292670    2.246368   -2.139819
H     -5.715459    1.280043   -2.527654
H     -4.352814   -2.105880   -2.146640
H     -5.749266   -1.099399   -2.526621
H     -5.194465   -1.236008   -0.851347
H     -2.857090   -0.834565   -3.795386
H     -4.299420    0.071203   -4.261113
H     -2.833505    0.937548   -3.794674
H     -2.453383    2.218343   -1.044104
H     -1.352635    1.338967   -2.095888
H     -1.317002    1.372806    0.967907
H     -0.117573    2.131729   -0.092866

