40
-401863.1567755094
O      1.216118   -0.000000    0.000000
C      0.000000    0.000000    0.000000
C     -0.812014   -1.282317    0.032205
C     -2.080803   -1.205405   -0.844049
C     -3.003497   -2.468394   -0.738690
C     -3.654357   -2.614919    0.652568
C     -4.120404   -2.382437   -1.802410
C     -2.175528   -3.737725   -1.035142
C     -2.793978    0.131873   -0.557685
N     -1.920611    1.262758   -0.895535
C     -2.616501    2.569012   -1.121829
C     -3.539621    2.429056   -2.350970
C     -3.442277    3.031106    0.100545
C     -1.570794    3.650143   -1.464898
C     -0.788364    1.307502    0.032205
H     -1.102080   -1.435531    1.084036
H     -0.146432   -2.103446   -0.243670
H     -1.749286   -1.150327   -1.890767
H     -4.259987   -3.528490    0.689899
H     -4.316452   -1.774253    0.887788
H     -2.907728   -2.689523    1.451624
H     -3.702036   -2.246612   -2.807386
H     -4.710029   -3.306838   -1.810075
H     -4.816808   -1.558470   -1.613332
H     -2.831673   -4.614465   -1.089941
H     -1.649101   -3.655380   -1.994302
H     -1.430320   -3.937144   -0.258193
H     -3.697776    0.196237   -1.161417
H     -3.110564    0.165365    0.503022
H     -3.947217    3.408564   -2.623250
H     -4.394148    1.769629   -2.170928
H     -2.976792    2.037628   -3.204782
H     -4.249248    2.327478    0.333020
H     -2.814387    3.134093    0.993222
H     -3.901480    4.007478   -0.092592
H     -2.079050    4.544868   -1.838826
H     -0.887878    3.293602   -2.243711
H     -0.979221    3.957622   -0.597195
H     -0.087423    2.096075   -0.236414
H     -1.099715    1.478191    1.086960

