%nprocshared=10
%mem=12GB
%chk= 1.chk
# freq b3lyp/6-31g(d)

good luck!

0 1
O      1.213828   -0.000000    0.000000
C      0.000000    0.000000    0.000000
C     -0.804421   -1.291299   -0.061339
O     -2.127309   -1.170247    0.457182
C     -2.813727    0.000000    0.053750
C     -3.185255   -0.000000   -1.428748
C     -3.403817   -1.207279   -2.103490
C     -3.812623   -1.207211   -3.437811
C     -4.014389   -0.000003   -4.109419
C     -3.812624    1.207206   -3.437813
C     -3.403818    1.207277   -2.103491
O     -2.127309    1.170247    0.457183
C     -0.804422    1.291299   -0.061339
H     -0.298712   -2.063245    0.523629
H     -0.818097   -1.614975   -1.115368
H     -3.721862   -0.000000    0.663783
H     -3.259494   -2.144858   -1.574754
H     -3.975783   -2.150739   -3.951809
H     -4.332330   -0.000003   -5.148500
H     -3.975784    2.150734   -3.951811
H     -3.259495    2.144856   -1.574757
H     -0.298712    2.063245    0.523629
H     -0.818097    1.614974   -1.115368


