%nprocshared=8
%mem=4GB
%chk= 1.chk
# freq b3lyp/6-31g(d)

good luck!

0 1
O      1.216659    0.000000    0.000000
C      0.000000    0.000000    0.000000
C     -0.815506   -1.286381    0.001607
C     -1.939681   -1.279836   -1.061934
C     -2.726851   -2.595863   -1.038569
C     -2.831005   -0.014693   -0.944632
C     -3.730232    0.014971    0.303490
C     -1.945838    1.245562   -1.051413
C     -0.818586    1.284005    0.001607
H     -1.261338   -1.401871    1.001804
H     -0.131822   -2.128427   -0.146330
H     -1.447232   -1.213377   -2.044383
H     -3.531339   -2.589077   -1.784092
H     -2.070326   -3.444289   -1.263380
H     -3.178958   -2.782159   -0.057496
H     -3.498767   -0.015279   -1.818583
H     -4.309027    0.945713    0.331070
H     -4.444430   -0.814704    0.304193
H     -3.160315   -0.041958    1.238085
H     -1.492413    1.276448   -2.051546
H     -2.561625    2.149243   -0.961645
H     -1.254747    1.399142    1.005126
H     -0.141985    2.128733   -0.157539


