22
-253846.37532495492
O      1.213638   -0.000000   -0.000000
C      0.000000    0.000000    0.000000
C     -0.898968   -1.262874   -0.020590
N     -0.415758   -2.418109   -0.765963
C      0.582338   -3.205147   -0.044537
C      0.014168   -2.133943   -2.132119
C     -2.279239   -0.716226   -0.440117
C     -2.324235    0.698458    0.175812
C     -0.896162    1.241300   -0.020590
H     -0.979763   -1.574646    1.033068
H      0.763567   -4.137737   -0.592053
H      0.193516   -3.468829    0.945925
H      1.544615   -2.685865    0.086408
H      0.943591   -1.542793   -2.191076
H      0.180375   -3.083212   -2.653718
H     -0.771687   -1.597403   -2.673644
H     -3.095308   -1.362270   -0.105158
H     -2.344131   -0.648951   -1.533176
H     -2.554696    0.630453    1.246842
H     -3.090320    1.333627   -0.278928
H     -0.782089    1.711271   -1.008197
H     -0.569517    1.978378    0.719715

