%nprocshared=10
%mem=12GB
%chk= 1.chk
# freq b3lyp/6-31g(d)

good luck!

0 1
O      1.217562   -0.000000   -0.000000
C      0.000000    0.000000    0.000000
C     -0.806369   -1.298872    0.015996
C     -1.219606   -1.626017    1.476106
C     -1.764153   -3.048157    1.672355
C     -2.075290   -3.360638    3.140264
C     -1.986546   -1.230508   -0.985623
C     -2.867210    0.030606   -0.836388
C     -4.142762    0.030151   -1.752566
C     -4.981061    1.298895   -1.479963
C     -5.028988   -1.188647   -1.412538
C     -3.790688   -0.016631   -3.253835
C     -1.967049    1.273625   -1.002998
C     -0.810191    1.287901    0.015996
H     -0.112038   -2.084562   -0.306720
H     -0.334238   -1.500169    2.114344
H     -1.962858   -0.901861    1.836296
H     -2.673265   -3.190838    1.073973
H     -1.028482   -3.769798    1.290963
H     -2.457669   -4.380784    3.257423
H     -2.830895   -2.673941    3.541421
H     -1.178347   -3.266434    3.764255
H     -2.584744   -2.141198   -0.887291
H     -1.566838   -1.250947   -2.000477
H     -3.253958    0.050778    0.195246
H     -4.476589    2.211760   -1.812620
H     -5.936927    1.244785   -2.014361
H     -5.205021    1.406938   -0.410947
H     -4.553311   -2.138338   -1.677675
H     -5.975195   -1.136299   -1.964084
H     -5.270821   -1.218873   -0.342412
H     -4.706698   -0.000152   -3.856725
H     -3.242978   -0.927660   -3.518984
H     -3.184196    0.843158   -3.559815
H     -1.545874    1.291492   -2.017302
H     -2.541918    2.197754   -0.887463
H     -1.227362    1.405551    1.028103
H     -0.127242    2.126078   -0.152743


