%nprocshared=10
%mem=12GB
%chk= 1.chk
# freq b3lyp/6-31g(d)

good luck!

0 1
O      1.207570    0.000000    0.000000
C      0.000000    0.000000    0.000000
C     -1.007867   -1.157764   -0.002048
C     -1.789454   -0.795373   -1.298730
C     -3.145667   -1.482127   -1.443337
O     -2.927716   -2.880040   -1.398824
C     -4.116064   -3.625717   -1.555196
C     -1.789455    0.795374   -1.298729
C     -3.145670    1.482125   -1.443333
O     -2.927723    2.880038   -1.398824
C     -4.116075    3.625711   -1.555194
C     -1.007867    1.157764   -0.002048
C     -1.823341    0.786122    1.259335
C     -1.823342   -0.786121    1.259335
H     -0.582735   -2.160426   -0.003894
H     -1.188865   -1.139212   -2.149085
H     -3.609989   -1.201510   -2.404385
H     -3.849718   -1.185111   -0.648928
H     -4.599104   -3.425341   -2.525394
H     -3.841871   -4.682698   -1.506987
H     -4.843610   -3.408295   -0.756142
H     -1.188869    1.139214   -2.149086
H     -3.849718    1.185108   -0.648921
H     -3.609995    1.201505   -2.404378
H     -4.599118    3.425330   -2.525390
H     -3.841885    4.682693   -1.506989
H     -4.843617    3.408288   -0.756137
H     -0.582735    2.160426   -0.003893
H     -2.831568    1.209417    1.245982
H     -1.326773    1.177642    2.153279
H     -1.326775   -1.177643    2.153279
H     -2.831569   -1.209416    1.245980


