35
-498880.29137987556
O      1.216162    0.000000    0.000000
C      0.000000    0.000000    0.000000
C     -0.850246   -1.266071   -0.000735
C     -1.754125   -1.256953    1.256681
C     -1.729755   -1.262026   -1.274767
C     -2.625804   -0.009396   -1.271991
C     -1.741215    1.253076   -1.269456
C     -0.852254    1.263678   -0.000735
C     -1.750170    1.249181    1.260829
C     -2.669745   -0.006714    1.282949
C     -3.581567    0.031917    2.516479
C     -3.571824   -0.964575    3.503292
C     -4.413307   -0.905255    4.616936
C     -5.279824    0.169599    4.745479
F     -6.097687    0.236709    5.817807
C     -5.325778    1.181336    3.793510
C     -4.477848    1.101699    2.691463
C     -3.523336   -0.016385   -0.018478
H     -0.181961   -2.132887    0.015088
H     -1.126039   -1.284578    2.156363
H     -2.361507   -2.171836    1.259608
H     -1.096053   -1.279608   -2.170978
H     -2.343053   -2.173039   -1.296917
H     -3.258596   -0.009945   -2.168971
H     -1.113457    1.281744   -2.169511
H     -2.364076    2.157942   -1.284312
H     -0.187044    2.133094    0.008607
H     -1.131686    1.265773    2.167427
H     -2.354933    2.164318    1.276165
H     -2.900995   -1.811985    3.420013
H     -4.400316   -1.679666    5.377070
H     -6.014439    2.010146    3.922084
H     -4.521893    1.897480    1.953425
H     -4.187872    0.856344   -0.037223
H     -4.170719   -0.903499   -0.019301

