35
-498880.3566968703
O      1.216145   -0.000000    0.000000
C      0.000000    0.000000    0.000000
C     -0.848794   -1.268039    0.003142
C     -1.731944   -1.261561    1.275336
C     -1.753081   -1.257331   -1.252659
C     -2.642744   -0.000000   -1.230488
C     -1.753081    1.257331   -1.252659
C     -0.848794    1.268039    0.003142
C     -1.731944    1.261561    1.275336
C     -2.642677   -0.000000    1.321544
C     -3.475875    0.000002    2.610580
C     -2.833295    0.000041    3.861893
C     -3.547395    0.000052    5.057692
C     -4.936362    0.000024    5.005725
F     -5.638668    0.000035    6.159073
C     -5.614839   -0.000011    3.796378
C     -4.878208   -0.000022    2.609299
C     -3.515469   -0.000000    0.041054
H     -0.179222   -2.134183    0.002639
H     -1.093622   -1.301475    2.165907
H     -2.354876   -2.165738    1.293853
H     -1.139118   -1.275613   -2.162498
H     -2.370803   -2.165559   -1.263695
H     -3.296599   -0.000000   -2.112091
H     -1.139118    1.275612   -2.162498
H     -2.370803    2.165559   -1.263695
H     -0.179222    2.134183    0.002638
H     -1.093624    1.301475    2.165908
H     -2.354876    2.165738    1.293853
H     -1.748324    0.000065    3.914313
H     -3.044818    0.000082    6.019500
H     -6.700040   -0.000030    3.788482
H     -5.424771   -0.000048    1.673229
H     -4.168596   -0.882869    0.034349
H     -4.168594    0.882870    0.034347

