31
-388020.64284662344
O      1.216402   -0.000000    0.000000
C      0.000000    0.000000    0.000000
C     -0.830799   -1.273093    0.036079
C     -1.838270   -1.235411   -1.135614
C     -2.799818   -0.023838   -0.969942
C     -2.336535    0.849397    0.217180
C     -2.443812    0.015587    1.512232
C     -1.606948   -1.290160    1.375562
C     -0.859123    1.287950    0.036079
C     -0.569705    2.265895   -1.112870
C      0.751037    2.507399   -1.526826
C      1.028794    3.428702   -2.536290
C     -0.002627    4.139097   -3.152166
C     -1.316422    3.919360   -2.742455
C     -1.595446    2.994287   -1.733778
H     -0.155127   -2.129724   -0.042017
H     -1.295599   -1.174800   -2.085862
H     -2.394068   -2.180479   -1.152634
H     -2.832535    0.563760   -1.891749
H     -3.824267   -0.365200   -0.778090
H     -2.979258    1.731508    0.312075
H     -3.496715   -0.218425    1.707575
H     -2.093216    0.611453    2.363928
H     -2.254225   -2.175423    1.388574
H     -0.908534   -1.400209    2.212235
H     -0.546014    1.794921    0.963417
H      1.559703    1.962765   -1.053857
H      2.059923    3.592722   -2.839089
H      0.215629    4.857986   -3.937448
H     -2.133089    4.467378   -3.205651
H     -2.628111    2.854527   -1.432656

