31
-388021.32600982155
O      1.215371    0.000000   -0.000000
C      0.000000    0.000000    0.000000
C     -0.849002   -1.262876    0.001038
C     -1.681881   -1.265911   -1.306330
C     -2.551118    0.024114   -1.389505
C     -2.344833    0.873469   -0.119876
C     -2.727506    0.037619    1.118154
C     -1.812078   -1.219279    1.210813
C     -0.847191    1.287510    0.001038
C     -0.418744    2.342303   -1.010041
C      0.272542    2.036650   -2.189753
C      0.588262    3.036156   -3.112416
C      0.222071    4.360350   -2.872030
C     -0.459873    4.680200   -1.696528
C     -0.773929    3.679441   -0.777995
H     -0.185395   -2.131100    0.050794
H     -2.309392   -2.165356   -1.313585
H     -1.014405   -1.345711   -2.171899
H     -2.286474    0.612470   -2.274403
H     -3.613168   -0.229529   -1.487039
H     -2.965179    1.775839   -0.168882
H     -2.634096    0.649842    2.023407
H     -3.781943   -0.254617    1.046972
H     -1.237365   -1.219070    2.143980
H     -2.408773   -2.139258    1.213392
H     -0.705955    1.723421    1.002618
H      0.591608    1.017416   -2.382864
H      1.128480    2.776147   -4.019033
H      0.472297    5.137352   -3.589358
H     -0.742511    5.709474   -1.491062
H     -1.301288    3.939122    0.137891

