%nprocshared=10
%mem=12GB
%chk= 0.chk
# freq b3lyp/6-31g(d)

good luck!

0 1
O      1.217969   -0.000000    0.000000
C      0.000000    0.000000    0.000000
C     -0.820099   -1.282802   -0.004455
C     -1.873761   -1.303617   -1.148733
Si    -1.146820   -1.776457   -2.869782
C      0.254338   -0.649293   -3.470908
C     -2.559604   -1.756211   -4.136042
C     -0.475200   -3.544268   -2.724070
C     -2.728860   -0.016120   -1.086369
C     -1.886434    1.268317   -1.120557
C     -0.819280    1.283171   -0.004455
H     -0.133037   -2.133284   -0.044238
H     -1.347217   -1.332159    0.962728
H     -2.547819   -2.150473   -0.942404
H     -0.097753    0.355695   -3.731080
H      0.709119   -1.076538   -4.373785
H      1.045296   -0.541960   -2.720720
H     -2.212058   -2.126618   -5.108288
H     -2.955635   -0.746152   -4.295202
H     -3.394737   -2.394154   -3.821538
H     -1.243139   -4.243096   -2.370347
H     -0.125074   -3.906293   -3.698557
H      0.373045   -3.603759   -2.032008
H     -3.460917   -0.000457   -1.903120
H     -3.314397   -0.022463   -0.153071
H     -1.387293    1.363647   -2.092640
H     -2.534298    2.147427   -1.017513
H     -1.325702    1.359182    0.970070
H     -0.139394    2.135267   -0.095556


