28
-303190.36530905776
O      1.215368    0.000000    0.000000
C      0.000000    0.000000    0.000000
C     -0.829365   -1.273331   -0.036759
C     -2.073550   -1.200543    0.876231
C     -1.708011   -1.387834    2.354951
C     -2.807010    0.131240    0.626573
N     -1.923548    1.264643    0.897154
C     -2.579135    2.576823    1.075081
C     -3.455749    3.027101   -0.110630
C     -3.357363    2.627158    2.396473
C     -0.799459    1.302490   -0.036759
H     -1.160855   -1.393009   -1.080673
H     -0.182900   -2.124100    0.199912
H     -2.756010   -2.009750    0.582115
H     -2.607466   -1.382985    2.982375
H     -1.054330   -0.581997    2.703298
H     -1.193004   -2.342269    2.513499
H     -3.675261    0.193587    1.289516
H     -3.192069    0.141179   -0.413499
H     -1.750319    3.291926    1.165351
H     -4.341819    2.390702   -0.219604
H     -3.804354    4.054768    0.042240
H     -2.903602    3.003646   -1.056969
H     -2.722085    2.301601    3.226312
H     -3.695138    3.650743    2.595592
H     -4.249958    1.990463    2.375825
H     -0.120885    2.118810    0.226315
H     -1.117051    1.458949   -1.092026

