28
-303191.20896202506
O      1.215357    0.000000   -0.000000
C      0.000000    0.000000    0.000000
C     -0.824953   -1.275368    0.033220
C     -2.078418   -1.203035   -0.861113
C     -2.995967   -2.409122   -0.636187
C     -2.810911    0.125474   -0.618840
N     -1.926290    1.255054   -0.897954
C     -2.583154    2.565769   -1.083502
C     -3.367601    2.603600   -2.401548
C     -3.453664    3.027487    0.101825
C     -0.800688    1.301125    0.033220
H     -0.178390   -2.121973   -0.218430
H     -1.149010   -1.411719    1.078916
H     -1.749119   -1.196866   -1.908828
H     -3.372051   -2.434453    0.394718
H     -2.462496   -3.349009   -0.818113
H     -3.861673   -2.380413   -1.308482
H     -3.677903    0.182367   -1.283940
H     -3.200239    0.139343    0.420730
H     -1.755124    3.279911   -1.185115
H     -2.739451    2.258864   -3.228719
H     -3.696400    3.626883   -2.615121
H     -4.266175    1.976609   -2.366889
H     -2.896925    3.012764    1.045669
H     -3.802937    4.053714   -0.059433
H     -4.339212    2.392195    0.220968
H     -1.114136    1.464952    1.088512
H     -0.123993    2.116204   -0.238173

