34
-352525.55794814386
O      1.216342   -0.000000    0.000000
C      0.000000    0.000000    0.000000
C     -0.838612   -1.258355    0.016239
C     -1.872551   -1.266325   -1.140246
C     -3.027777   -2.304442   -0.929486
C     -3.827155   -2.446956   -2.242972
C     -2.428358   -3.687364   -0.596570
C     -3.987393   -1.888491    0.203040
C     -2.359868    0.185981   -1.406181
N     -2.210071    1.047319   -0.226673
C     -2.997569    2.267375   -0.360837
C     -0.787613    1.317965    0.016239
C     -0.522389    2.027064    1.354328
H     -1.369559   -1.267251    0.977591
H     -0.172236   -2.122480   -0.017977
H     -1.335713   -1.595453   -2.040429
H     -4.308189   -1.510265   -2.545937
H     -3.179450   -2.772234   -3.066610
H     -4.620352   -3.195252   -2.128178
H     -1.922684   -3.694949    0.374651
H     -3.219069   -4.446110   -0.559604
H     -1.702541   -4.001222   -1.357487
H     -4.475155   -0.929842   -0.002001
H     -3.472651   -1.796263    1.165455
H     -4.774720   -2.642542    0.323333
H     -3.415737    0.188935   -1.687922
H     -1.811779    0.611045   -2.271121
H     -2.953675    2.854796    0.559766
H     -4.045924    2.004486   -0.536246
H     -2.661336    2.911816   -1.197035
H     -0.358250    1.940568   -0.796202
H     -0.993076    1.480244    2.178894
H      0.556573    2.070077    1.525647
H     -0.907413    3.050781    1.355189

