33
-388785.314913881
C     -2.844531   -2.573696    0.689317
C     -1.969777   -1.342433    1.019156
C     -1.460345   -1.464864    2.468441
C     -0.103670   -1.562838    2.805374
C      0.305754   -1.694135    4.135644
C     -0.615917   -1.736613    5.183883
C     -0.173575   -1.906369    6.618378
C     -1.974060   -1.634393    4.851553
C     -2.384202   -1.503812    3.528351
C     -0.812588   -1.290178   -0.017297
C      0.000000    0.000000    0.000000
O      1.217596   -0.000000    0.000000
C     -0.819050    1.282000   -0.017297
C     -1.978734    1.232973    0.997010
C     -2.811047   -0.046805    0.843422
H     -3.236112   -2.508179   -0.333363
H     -2.262881   -3.498499    0.773923
H     -3.697999   -2.654175    1.370391
H      0.662024   -1.524004    2.038939
H      1.369296   -1.760890    4.354582
H     -0.265502   -2.951428    6.943661
H      0.873285   -1.614498    6.751461
H     -0.782249   -1.302482    7.300934
H     -2.722437   -1.657043    5.641313
H     -3.448934   -1.430693    3.322089
H     -1.271022   -1.357767   -1.015725
H     -0.132806   -2.141660    0.078679
H     -1.234689    1.391489   -1.031446
H     -0.148070    2.128098    0.157150
H     -1.573650    1.284683    2.014985
H     -2.617354    2.114700    0.866382
H     -3.269001   -0.066516   -0.156851
H     -3.639557   -0.039408    1.560677

