33
-388783.91058277653
C     -1.132206   -1.398036   -2.486106
C     -1.883096   -1.323068   -1.141245
C     -2.816152   -2.531714   -0.939789
C     -3.003344   -3.520512   -1.914666
C     -3.867862   -4.597497   -1.705707
C     -4.587270   -4.735183   -0.515744
C     -5.544500   -5.884280   -0.302086
C     -4.402590   -3.751119    0.464167
C     -3.540952   -2.677724    0.255380
C     -0.817888   -1.285926    0.001911
C      0.000000    0.000000    0.000000
O      1.216891   -0.000000   -0.000000
C     -0.819920    1.282937    0.001911
C     -1.887751    1.271266   -1.111705
C     -2.727630   -0.014987   -1.082714
H     -0.553310   -2.324229   -2.565059
H     -1.822033   -1.349855   -3.336094
H     -0.422483   -0.571844   -2.589029
H     -2.470767   -3.468031   -2.857622
H     -3.979344   -5.345232   -2.488279
H     -5.243888   -6.768366   -0.874432
H     -5.600875   -6.168700    0.754301
H     -6.561992   -5.620979   -0.621416
H     -4.939572   -3.826765    1.407507
H     -3.434123   -1.943020    1.049502
H     -0.135167   -2.137821   -0.072609
H     -1.323087   -1.350404    0.974880
H     -1.324606    1.353785    0.977863
H     -0.140747    2.135790   -0.085934
H     -1.396706    1.385204   -2.085609
H     -2.545292    2.141565   -0.998331
H     -3.329604   -0.020602   -0.164897
H     -3.441462   -0.016537   -1.916016

