%nprocshared=10
%mem=12GB
%chk= 1.chk
# freq b3lyp/6-31g(d)

good luck!

0 1
O      1.218015   -0.000000   -0.000000
C      0.000000    0.000000    0.000000
C     -0.812058   -1.291835    0.010415
C     -1.979359   -1.318192   -1.007967
C     -1.553213   -1.583005   -2.449663
C     -2.530305   -1.987576   -3.378833
C     -2.219376   -2.235514   -4.707235
C     -0.898540   -2.087762   -5.158563
O     -0.689785   -2.355058   -6.481853
C      0.628290   -2.226461   -6.989340
C      0.091046   -1.695355   -4.254886
C     -0.242798   -1.449529   -2.916793
C     -2.810092   -0.014071   -0.874874
C     -1.949694    1.245283   -1.033897
C     -0.815403    1.284682    0.010415
H     -1.248752   -1.375470    1.017335
H     -0.130984   -2.137377   -0.120812
H     -2.637015   -2.148773   -0.716872
H     -3.558956   -2.118315   -3.048000
H     -2.978536   -2.552323   -5.415823
H      0.567784   -2.481328   -8.049088
H      1.003659   -1.199756   -6.884311
H      1.322894   -2.915138   -6.490062
H      1.122187   -1.579558   -4.568887
H      0.555593   -1.157282   -2.242547
H     -3.291371   -0.003171    0.114344
H     -3.616496   -0.014785   -1.617144
H     -2.569968    2.144180   -0.936637
H     -1.516921    1.268003   -2.041973
H     -0.136736    2.129005   -0.142161
H     -1.257272    1.389620    1.013803


