%nprocshared=10
%mem=12GB
%chk= 1.chk
# freq b3lyp/6-31g(d)

good luck!

0 1
C     -6.164691   -5.895090   -2.006151
C     -5.560937   -4.644064   -2.672412
C     -4.623691   -3.905195   -1.687141
C     -3.469477   -4.824624   -1.163549
C     -2.251760   -3.907137   -0.864551
C     -2.824686   -2.489040   -1.004596
C     -1.864395   -1.300631   -1.145165
C     -0.816961   -1.281315   -0.007373
C      0.000000    0.000000    0.000000
C     -0.829643    1.276467   -0.007373
C      0.011719    2.547509    0.159515
C     -0.888393    3.787440    0.238774
C     -1.831295    3.875025   -0.969085
C     -2.640929    2.581597   -1.169074
C     -1.776508    1.295086   -1.263044
C     -2.685076    0.019772   -1.181069
C     -3.794526   -0.048487   -2.254480
C     -4.691128   -1.300340   -2.139907
C     -3.874245   -2.608260   -2.148079
C     -3.224860   -2.831179   -3.532224
C     -0.950032    1.316496   -2.568633
O      1.218279    0.000000   -0.000000
C     -6.700158   -3.771265   -3.223956
H     -6.772054   -5.617794   -1.134128
H     -6.817805   -6.429431   -2.706217
H     -5.396821   -6.597712   -1.667590
H     -4.955504   -4.987185   -3.524539
H     -5.241327   -3.611879   -0.822812
H     -3.211705   -5.579786   -1.915940
H     -3.784051   -5.375463   -0.271557
H     -1.827461   -4.089974    0.128037
H     -1.443608   -4.074812   -1.587338
H     -3.410734   -2.298825   -0.088455
H     -1.315752   -1.404751   -2.090726
H     -1.343487   -1.349322    0.957967
H     -0.132790   -2.132072   -0.073885
H     -1.502836    1.203368    0.864209
H      0.722349    2.639790   -0.670008
H      0.624079    2.454988    1.063686
H     -0.278829    4.696993    0.311610
H     -1.487058    3.739888    1.161081
H     -1.246387    4.092692   -1.872735
H     -2.524973    4.717033   -0.848263
H     -3.339615    2.468569   -0.325930
H     -3.256988    2.681834   -2.070809
H     -3.200939    0.085110   -0.207086
H     -4.434158    0.837889   -2.179569
H     -3.349228   -0.014747   -3.256308
H     -5.263474   -1.247435   -1.201860
H     -5.425964   -1.276433   -2.951868
H     -3.993406   -2.889157   -4.311018
H     -2.649895   -3.762092   -3.573804
H     -2.546222   -2.020405   -3.812000
H     -0.277939    0.456338   -2.651247
H     -1.605131    1.315992   -3.446402
H     -0.324857    2.210589   -2.635588
H     -7.286843   -3.325503   -2.410328
H     -6.335657   -2.957656   -3.857219
H     -7.385289   -4.375464   -3.830893


