34
-352525.52114422666
O      1.217455    0.000000    0.000000
C      0.000000    0.000000    0.000000
C     -0.816800   -1.286434   -0.036412
C     -1.842054   -1.292712   -1.202259
C     -2.773620   -2.553283   -1.230573
C     -3.723830   -2.614760   -0.016565
C     -1.912605   -3.834661   -1.252038
C     -3.620782   -2.535021   -2.522379
C     -2.589833    0.064414   -1.202278
N     -1.717291    1.243486   -1.229818
C     -1.024969    1.431639   -2.504336
C     -0.841937    1.284593   -0.036412
C     -0.000670    2.552443    0.063383
H     -1.352752   -1.361255    0.922044
H     -0.116719   -2.123363   -0.095652
H     -1.258148   -1.338841   -2.133785
H     -4.411856   -1.762574    0.013161
H     -4.334628   -3.524250   -0.064133
H     -3.178059   -2.641761    0.933554
H     -2.547755   -4.717074   -1.394432
H     -1.360532   -3.978214   -0.317418
H     -1.184954   -3.812510   -2.073057
H     -4.201665   -3.460924   -2.609149
H     -2.985505   -2.457650   -3.413658
H     -4.332887   -1.703266   -2.542408
H     -3.212461    0.144712   -0.300600
H     -3.262301    0.134869   -2.063020
H     -0.230581    0.696176   -2.723304
H     -0.573101    2.426728   -2.536521
H     -1.764483    1.378728   -3.310477
H     -1.526732    1.247915    0.825282
H     -0.633689    3.434543   -0.075199
H      0.468770    2.608654    1.050131
H      0.805425    2.565007   -0.674534

