%nprocshared=8
%mem=4GB
%chk= 0.chk
# freq b3lyp/6-31g(d)

good luck!

0 1
O      1.211014    0.000000    0.000000
C      0.000000    0.000000    0.000000
C     -0.933772   -1.210498   -0.011803
C     -2.145136   -0.660996    0.775569
C     -1.512989   -1.271730   -1.458195
C     -2.471564   -0.037596   -1.519427
C     -2.323403    0.594880   -0.113755
C     -0.922277    1.235317   -0.011803
H     -0.458100   -2.130661    0.331064
H     -3.009179   -1.334476    0.749989
H     -1.914587   -0.423610    1.820777
H     -2.061499   -2.210544   -1.590602
H     -0.726828   -1.243833   -2.219162
H     -2.202369    0.664212   -2.316135
H     -3.505988   -0.350518   -1.697767
H     -3.141615    1.264242    0.164860
H     -0.792202    1.786808    0.928953
H     -0.662808    1.916114   -0.830063


