%nprocshared=8
%mem=8GB
%chk= 0.chk
# freq b3lyp/6-31g(d)

good luck!

0 1
O      1.216667   -0.000000   -0.000000
C      0.000000    0.000000    0.000000
C     -0.850770   -1.261037   -0.012765
C     -1.636983   -1.269734   -1.348902
C     -2.487188    0.029607   -1.476197
C     -2.324383    0.889460   -0.204215
C     -2.769964    0.055508    1.015621
C     -1.855250   -1.197712    1.161782
C     -0.839353    1.289151   -0.012765
C     -0.264847    2.317643   -1.007007
C     -0.860352    3.721939   -0.865794
H     -0.195551   -2.133513    0.065803
H     -0.939451   -1.366795   -2.188207
H     -2.276100   -2.160907   -1.368443
H     -3.547382   -0.213858   -1.613516
H     -2.186903    0.601016   -2.361537
H     -2.948576    1.787561   -0.280497
H     -2.726996    0.671071    1.922235
H     -3.817934   -0.242590    0.890717
H     -2.450406   -2.118743    1.162947
H     -1.312259   -1.178172    2.113698
H     -0.731544    1.722242    0.996138
H     -0.404512    1.959436   -2.035804
H      0.817657    2.353583   -0.843338
H     -1.937257    3.737008   -1.070207
H     -0.384640    4.417475   -1.566423
H     -0.709376    4.115599    0.147124


