%nprocshared=8
%mem=4GB
%chk= 2.chk
# freq b3lyp/6-31g(d)

good luck!

0 1
O      1.218472   -0.000000    0.000000
C      0.000000    0.000000    0.000000
C     -0.790135   -1.312571   -0.007007
C      0.159425   -2.511223   -0.112531
C     -1.887567   -1.344568   -1.105330
C     -3.223594   -0.687674   -0.726953
C     -3.208787    0.839908   -0.586667
C     -2.205769    1.399756    0.434306
C     -0.734704    1.343718   -0.007007
H     -1.304865   -1.362532    0.967359
H      0.661345   -2.526366   -1.086199
H      0.938534   -2.467609    0.652418
H     -0.397233   -3.447874    0.002393
H     -2.084889   -2.399074   -1.335127
H     -1.498210   -0.905799   -2.035746
H     -3.574218   -1.131322    0.217021
H     -3.971691   -0.958547   -1.484012
H     -4.218515    1.168374   -0.306847
H     -3.002852    1.294461   -1.567449
H     -2.333593    0.894830    1.402403
H     -2.450957    2.454069    0.614436
H     -0.653743    1.731789   -1.034420
H     -0.120706    2.015311    0.603633


