%nprocshared=8
%mem=4GB
%chk= 1.chk
# freq b3lyp/6-31g(d)

good luck!

0 1
O      1.218787   -0.000000    0.000000
C      0.000000    0.000000    0.000000
C     -0.760415   -1.331835    0.001090
C     -0.766319   -1.884040   -1.440056
C     -2.180477   -1.293133    0.593132
C     -2.310775   -0.623776    1.975967
C     -2.458667    0.906739    1.938769
C     -1.242989    1.690883    1.426351
C     -0.772104    1.311927    0.001090
H     -0.143988   -2.005462    0.610845
H     -1.237628   -2.873256   -1.467798
H     -1.329354   -1.228264   -2.116075
H      0.254584   -1.975704   -1.822465
H     -2.869769   -0.804869   -0.111476
H     -2.523056   -2.333682    0.665345
H     -1.451282   -0.902285    2.603905
H     -3.195965   -1.033170    2.479337
H     -2.696511    1.263812    2.949673
H     -3.330448    1.156292    1.315505
H     -1.490868    2.759668    1.429527
H     -0.397612    1.570845    2.117589
H     -0.089803    2.079541   -0.375868
H     -1.639338    1.258608   -0.671076


