60
-644769.1738928547
C    -10.201694   -0.274168    4.966067
C     -9.428501    0.211798    3.725208
C     -8.053823   -0.493250    3.633774
C     -8.188755   -2.052921    3.591067
C     -6.981584   -2.595588    2.777624
C     -6.089843   -1.359646    2.584441
C     -4.979368   -1.395479    1.524578
C     -4.063779   -2.620216    1.707650
C     -2.847811   -2.601919    0.774349
C     -2.047342   -1.279682    0.891319
C     -0.795844   -1.303571   -0.029717
C      0.000000    0.000000    0.000000
C     -0.815499    1.285304   -0.029717
C     -2.107892    1.248494    0.813572
O      1.214570    0.000000   -0.000000
C     -1.537418   -1.194023    2.280470
N     -1.120473   -1.150418    3.364011
C     -2.969796   -0.023140    0.595682
C     -4.174798   -0.063024    1.601134
C     -5.115088    1.160470    1.511872
C     -6.271315    1.120365    2.534356
C     -7.094244   -0.179823    2.435227
C     -7.874635   -0.225690    1.102439
C     -3.475195   -0.041901   -0.866595
C     -9.341815    1.746463    3.758243
H    -10.369407   -1.355659    4.954431
H     -9.654712   -0.030455    5.886624
H    -11.182111    0.212932    5.026164
H    -10.016705   -0.074348    2.840476
H     -7.499756   -0.226902    4.548253
H     -9.136390   -2.341331    3.120455
H     -8.209296   -2.470049    4.602680
H     -7.306872   -2.998499    1.809992
H     -6.462578   -3.407189    3.297613
H     -5.582189   -1.190717    3.549408
H     -5.447097   -1.474324    0.532798
H     -4.634072   -3.541176    1.538318
H     -3.714908   -2.658612    2.748910
H     -3.161544   -2.718883   -0.269883
H     -2.183304   -3.445275    0.997446
H     -1.121517   -1.486369   -1.062228
H     -0.124355   -2.121503    0.246668
H     -1.067128    1.469359   -1.085023
H     -0.162898    2.106594    0.280902
H     -2.697229    2.139923    0.576109
H     -1.843524    1.324016    1.875303
H     -3.729128   -0.033611    2.607566
H     -4.544653    2.080694    1.680931
H     -5.532977    1.243961    0.501039
H     -6.895457    2.008085    2.385583
H     -5.854828    1.199434    3.549105
H     -8.485290   -1.130130    1.012640
H     -8.551831    0.632130    1.024642
H     -7.215911   -0.193653    0.229657
H     -4.136596   -0.885401   -1.077918
H     -2.660911   -0.078531   -1.595134
H     -4.039355    0.873240   -1.072354
H    -10.334412    2.181831    3.925931
H     -8.690489    2.088703    4.572575
H     -8.956618    2.164837    2.824097

