26
-349507.1786569532
O      1.214851    0.000000   -0.000000
C      0.000000    0.000000    0.000000
C     -0.849894   -1.269008   -0.009742
C     -1.763327   -1.265860    1.239541
C     -1.721075   -1.259390   -1.291389
C     -2.610692   -0.000002   -1.304529
C     -1.721076    1.259386   -1.291390
C     -0.849897    1.269007   -0.009742
C     -1.763330    1.265858    1.239542
C     -2.666448   -0.000002    1.226033
C     -3.538738   -0.000006    2.408900
N     -4.231237   -0.000010    3.341376
C     -3.530078   -0.000002   -0.067303
H     -0.181997   -2.135610    0.008748
H     -2.387340   -2.167891    1.245902
H     -1.161853   -1.282240    2.156017
H     -1.079164   -1.281460   -2.181070
H     -2.338937   -2.166849   -1.318585
H     -3.231764   -0.000003   -2.208848
H     -1.079165    1.281456   -2.181070
H     -2.338939    2.166845   -1.318588
H     -0.182000    2.135609    0.008747
H     -1.161855    1.282239    2.156017
H     -2.387344    2.167888    1.245902
H     -4.181565    0.882371   -0.072083
H     -4.181564   -0.882376   -0.072083

