22
-329215.01857179287
O      1.214246   -0.000000    0.000000
C      0.000000    0.000000    0.000000
C     -0.836352   -1.296596    0.006865
C     -1.856912   -1.244737   -1.153685
C     -2.664912    0.000020   -0.754429
F     -3.940058    0.000030   -1.302473
C     -1.856894    1.244764   -1.153685
C     -0.836333    1.296608    0.006865
C     -1.820508    1.244304    1.203107
C     -2.659005    0.000020    0.833482
C     -1.820527   -1.244277    1.203107
H     -0.166808   -2.159655   -0.006833
H     -1.411332   -1.157594   -2.149770
H     -2.490582   -2.138904   -1.135632
H     -1.411315    1.157614   -2.149771
H     -2.490550    2.138941   -1.135632
H     -0.166776    2.159657   -0.006833
H     -2.422099    2.160807    1.218161
H     -1.330751    1.149689    2.178040
H     -3.671042    0.000028    1.244656
H     -2.422131   -2.160770    1.218161
H     -1.330767   -1.149669    2.178040

