25
-353897.0250358618
O      1.214118    0.000000    0.000000
C      0.000000    0.000000    0.000000
C     -0.856679   -1.262135    0.033771
C     -1.668920   -1.243806    1.356441
C     -1.831487   -1.241568   -1.169516
C     -2.716289    0.019129   -1.100953
C     -1.821164    1.262333   -1.149540
F     -1.082571    1.250179   -2.340462
C     -0.842112    1.277000    0.033771
C     -1.654131    1.276567    1.357145
C     -2.549440    0.021850    1.415683
C     -3.519539    0.036032    0.216585
H     -0.194138   -2.132193   -0.007811
H     -2.293601   -2.145639    1.410306
H     -0.987071   -1.273920    2.216180
H     -2.458691   -2.142396   -1.148442
H     -1.273167   -1.253715   -2.111249
H     -3.395943    0.044521   -1.961662
H     -2.423685    2.180827   -1.156862
H     -0.177260    2.143491   -0.032769
H     -0.963969    1.300950    2.209494
H     -2.265679    2.187246    1.415903
H     -3.120511    0.027015    2.352712
H     -4.161986    0.926313    0.261757
H     -4.184398   -0.836745    0.252639

