38
-518551.76930086495
O      1.217368    0.000000   -0.000000
C      0.000000    0.000000    0.000000
C     -0.793412   -1.304182   -0.011436
C     -1.968351   -1.271632   -1.014521
N     -2.776908   -0.058188   -0.818044
C     -3.753443   -0.062726    0.176497
C     -4.690503   -1.239804    0.211651
C     -5.129097   -1.891085   -0.950419
C     -6.066039   -2.921043   -0.868098
C     -6.566619   -3.313655    0.375062
C     -6.141292   -2.661473    1.535389
C     -5.217594   -1.621878    1.452884
O     -3.907581    0.861500    0.970689
C     -1.969245    1.158911   -1.055408
C     -0.821079    1.289464   -0.011436
C      0.053954    2.523779   -0.277176
C     -0.783002    3.800962   -0.427857
C     -1.857659    3.638314   -1.512975
C     -2.783708    2.453484   -1.198648
H     -1.204120   -1.463033    0.996265
H     -0.104636   -2.127247   -0.225938
H     -2.588828   -2.158817   -0.891434
H     -1.589843   -1.272421   -2.043503
H     -4.752686   -1.571366   -1.917784
H     -6.410068   -3.412070   -1.774338
H     -7.292977   -4.119441    0.438805
H     -6.536274   -2.958704    2.502998
H     -4.898607   -1.086663    2.341586
H     -1.496291    0.981197   -2.033668
H     -1.311455    1.381365    0.969864
H      0.790210    2.626437    0.526752
H      0.634506    2.353851   -1.194225
H     -0.126457    4.647288   -0.665541
H     -1.269878    4.039792    0.528662
H     -1.370603    3.488327   -2.488334
H     -2.455157    4.553942   -1.600451
H     -3.329605    2.650511   -0.274161
H     -3.526304    2.317271   -1.995107

