24
-290988.6986757485
O      1.216452   -0.000000    0.000000
C      0.000000    0.000000    0.000000
C     -0.815136   -1.288637    0.002515
C     -1.932752   -1.271322   -1.060358
C     -2.805965   -0.008873   -0.955295
C     -3.915498   -0.024127   -2.005142
O     -4.759628    1.093627   -1.801194
C     -5.801515    1.174986   -2.749423
C     -1.935156    1.254699   -1.064320
C     -0.822236    1.281884    0.002515
H     -1.272214   -1.389127    0.999078
H     -0.132753   -2.132411   -0.134928
H     -2.547916   -2.174482   -0.958512
H     -1.477875   -1.314088   -2.060671
H     -3.296699   -0.006077    0.030340
H     -3.478968    0.005811   -3.020284
H     -4.497596   -0.959757   -1.929809
H     -6.392032    2.061931   -2.505170
H     -6.456113    0.288841   -2.713748
H     -5.412954    1.275298   -3.775963
H     -2.562351    2.146953   -0.977823
H     -1.477635    1.285598   -2.064414
H     -1.282905    1.379291    0.997935
H     -0.145361    2.130639   -0.132143

