21
-243032.11591971334
O      1.211060    0.000000    0.000000
C      0.000000    0.000000    0.000000
C     -0.932968   -1.211155   -0.010666
C     -2.149046   -0.659462    0.766634
C     -1.511370   -1.282894   -1.454885
C     -2.449747   -0.030313   -1.552606
C     -3.887957   -0.381676   -1.945632
C     -2.321783    0.591056   -0.131213
C     -0.923390    1.233955   -0.010666
H     -0.457568   -2.128916    0.339387
H     -1.925377   -0.412401    1.811072
H     -3.008979   -1.337175    0.746367
H     -0.727657   -1.292338   -2.219175
H     -2.086766   -2.209909   -1.565726
H     -2.058723    0.676215   -2.295832
H     -4.511255    0.517787   -2.015811
H     -4.353610   -1.055349   -1.215862
H     -3.915647   -0.883782   -2.920136
H     -3.145124    1.260222    0.135006
H     -0.803039    1.776993    0.936362
H     -0.657850    1.922358   -0.820567

