35
-423507.9174878398
O      1.215586    0.000000   -0.000000
C      0.000000    0.000000    0.000000
C     -0.834211   -1.278898    0.028540
C      0.012901   -2.531073   -0.195274
C     -2.020991   -1.156864   -0.951282
C     -2.781596    0.158076   -0.763331
N     -1.876800    1.287132   -0.951802
C     -2.524493    2.579170   -1.155905
C     -3.335700    3.158658    0.035523
C     -3.954241    4.493874   -0.311148
C     -3.243619    5.687134   -0.118978
C     -3.793857    6.917074   -0.481317
C     -5.069495    6.975279   -1.045592
C     -5.788810    5.795269   -1.242896
C     -5.233876    4.567781   -0.879091
C     -0.793948    1.307389    0.028540
H     -1.262730   -1.310662    1.046317
H      0.833025   -2.584201    0.525552
H      0.456663   -2.525679   -1.196851
H     -0.600873   -3.433318   -0.096868
H     -2.700724   -2.006170   -0.807888
H     -1.647079   -1.204791   -1.981817
H     -3.266444    0.162195    0.234616
H     -3.582659    0.235018   -1.507831
H     -1.748252    3.302065   -1.437515
H     -3.191938    2.483856   -2.021835
H     -2.676922    3.269979    0.905573
H     -4.121255    2.447860    0.319860
H     -2.251118    5.651506    0.325913
H     -3.227624    7.830548   -0.318492
H     -5.501072    7.932598   -1.325141
H     -6.785025    5.830066   -1.676442
H     -5.803714    3.653125   -1.030873
H     -0.103041    2.124239   -0.199466
H     -1.152494    1.453151    1.071128

