35
-423508.36081582453
O      1.215793    0.000000   -0.000000
C      0.000000    0.000000    0.000000
C     -0.833742   -1.277227    0.029375
C      0.007016   -2.529745   -0.215596
C     -2.028772   -1.137154   -0.936131
C     -2.779030    0.179541   -0.731127
N     -1.885006    1.318851   -0.940541
C     -2.605601    2.593266   -0.956955
C     -1.794780    3.747944   -1.577734
C     -2.626998    5.005156   -1.717421
C     -2.691285    5.945533   -0.680307
C     -3.488433    7.085555   -0.792836
C     -4.237125    7.305049   -1.950299
C     -4.181416    6.377562   -2.992316
C     -3.383544    5.238989   -2.874021
C     -0.787710    1.311162    0.029375
H     -1.250882   -1.316776    1.051275
H     -0.608268   -3.431074   -0.117994
H      0.438923   -2.516928   -1.222293
H      0.835298   -2.591730    0.495119
H     -2.714781   -1.981514   -0.794828
H     -1.666621   -1.179430   -1.971288
H     -3.237534    0.196496    0.280665
H     -3.599356    0.253213   -1.453693
H     -3.509613    2.450555   -1.560253
H     -2.946628    2.885309    0.056601
H     -0.911955    3.963111   -0.964859
H     -1.430813    3.417380   -2.557426
H     -2.105054    5.785111    0.222283
H     -3.520500    7.804621    0.021706
H     -4.855152    8.194238   -2.041750
H     -4.755528    6.542775   -3.900444
H     -3.340302    4.523476   -3.692735
H     -0.080961    2.114896   -0.184887
H     -1.158770    1.459223    1.069405

