35
-423508.2829312194
O      1.215753   -0.000000    0.000000
C      0.000000    0.000000    0.000000
C     -0.834626   -1.277006    0.026692
C      0.007546   -2.530645   -0.207107
C     -2.021075   -1.139607   -0.950367
C     -2.771578    0.180084   -0.762179
N     -1.871285    1.315564   -0.963512
C     -2.557329    2.609291   -0.985965
C     -3.375596    2.844294   -2.270860
C     -3.951296    4.243821   -2.322893
C     -3.225364    5.296377   -2.897160
C     -3.735762    6.594906   -2.914755
C     -4.985977    6.863814   -2.354636
C     -5.720351    5.825165   -1.779759
C     -5.205493    4.528126   -1.765810
C     -0.790977    1.308332    0.026692
H     -1.261274   -1.313102    1.044709
H      0.453635   -2.517942   -1.207557
H     -0.610167   -3.431238   -0.118228
H      0.825800   -2.594266    0.515061
H     -2.710045   -1.981691   -0.809905
H     -1.649697   -1.189864   -1.981862
H     -3.239741    0.209050    0.245363
H     -3.584158    0.240315   -1.491924
H     -1.789941    3.389576   -0.926136
H     -3.208846    2.743881   -0.099486
H     -4.190657    2.114418   -2.339720
H     -2.715708    2.668588   -3.128229
H     -2.252596    5.093311   -3.340463
H     -3.158810    7.395645   -3.370254
H     -5.386691    7.873830   -2.370207
H     -6.697089    6.023244   -1.345766
H     -5.787036    3.722674   -1.321655
H     -1.174347    1.449242    1.062550
H     -0.092160    2.123185   -0.180285

