24
-361350.0061975826
O      1.206187   -0.000000   -0.000000
C      0.000000    0.000000    0.000000
C     -1.001166   -1.171246    0.000841
C     -1.790931   -0.799459   -1.295884
C     -3.157098   -1.453280   -1.352056
O     -4.200090   -0.947269   -0.991356
O     -3.067805   -2.715631   -1.824276
C     -4.303419   -3.449890   -1.866280
C     -1.842129    0.769435   -1.256136
C     -1.019985    1.145846    0.000841
C     -1.844490    0.767498    1.255641
C     -1.823554   -0.805507    1.260020
H     -0.563865   -2.169584   -0.007927
H     -1.216813   -1.154136   -2.157587
H     -4.047864   -4.428547   -2.272925
H     -5.028683   -2.943292   -2.508197
H     -4.725979   -3.548504   -0.862847
H     -2.874712    1.121414   -1.183222
H     -1.397252    1.188838   -2.163917
H     -0.598553    2.151550   -0.001669
H     -1.382246    1.169664    2.163029
H     -2.863388    1.161336    1.194879
H     -2.830986   -1.228518    1.240207
H     -1.320720   -1.189736    2.153489

