24
-361348.27609395265
O      1.206516    0.000000   -0.000000
C      0.000000    0.000000    0.000000
C     -1.008859   -1.162041    0.005986
C     -1.789195   -0.789900   -1.278118
C     -3.116477   -1.504373   -1.453025
O     -3.480772   -2.485485   -0.840522
O     -3.847032   -0.928755   -2.435172
C     -5.104617   -1.564169   -2.723130
C     -1.863977    0.787324   -1.233227
C     -1.011584    1.156669    0.005986
C     -1.814747    0.786878    1.276376
C     -1.829527   -0.786292    1.265703
H     -0.580655   -2.163661    0.006915
H     -1.188851   -1.083648   -2.150395
H     -5.549699   -0.979083   -3.528301
H     -5.749161   -1.557763   -1.840273
H     -4.947604   -2.598624   -3.039785
H     -2.893442    1.143406   -1.132571
H     -1.456259    1.220665   -2.150780
H     -0.582561    2.159376   -0.006192
H     -2.823109    1.213905    1.249232
H     -1.319554    1.170363    2.174564
H     -1.343063   -1.187484    2.160436
H     -2.836785   -1.204833    1.227350

