25
-291593.4265340604
O      1.206375    0.000000    0.000000
C      0.000000    0.000000    0.000000
C     -1.009428   -1.162624   -0.017374
C     -1.876156   -0.768256    1.163273
C     -1.855344    0.779152    1.255366
C     -3.262732    1.396538    1.285466
C     -1.017360    1.150206   -0.017374
C     -1.767737    0.782891   -1.321541
C     -1.782712   -0.788598   -1.318304
C     -1.081795    1.224438    2.516731
C     -2.522439   -1.603922    1.976305
H     -0.594804   -2.170783    0.007744
H     -3.773540    1.128342    2.216999
H     -3.890902    1.048808    0.460361
H     -3.208757    2.491230    1.240597
H     -0.590938    2.154716    0.006488
H     -2.771810    1.211612   -1.365600
H     -1.216495    1.164883   -2.187125
H     -1.267280   -1.191911   -2.196401
H     -2.795859   -1.200098   -1.303961
H     -1.584956    0.868607    3.422095
H     -0.059268    0.831950    2.526093
H     -1.023656    2.318960    2.565435
H     -3.136595   -1.247565    2.799854
H     -2.459996   -2.682140    1.852518

