24
-267711.490522261
O      1.217277    0.000000    0.000000
C      0.000000    0.000000    0.000000
C     -0.805127   -1.296784    0.031599
C     -2.113296   -1.257897   -0.792688
C     -2.919016    0.000000   -0.416576
C     -1.861495   -1.276331   -2.316346
C     -1.167335   -0.000000   -2.825046
C     -1.861495    1.276331   -2.316346
C     -2.113296    1.257897   -0.792688
C     -0.805127    1.296784    0.031599
H     -1.064987   -1.473116    1.087548
H     -0.144472   -2.115434   -0.273218
H     -2.695115   -2.152454   -0.534315
H     -3.881197    0.000000   -0.945822
H     -3.147713    0.000000    0.658452
H     -2.832390   -1.384024   -2.821196
H     -1.269376   -2.159814   -2.588621
H     -1.151565   -0.000000   -3.922191
H     -0.114872   -0.000000   -2.514922
H     -1.269376    2.159814   -2.588621
H     -2.832390    1.384024   -2.821196
H     -2.695114    2.152455   -0.534315
H     -1.064987    1.473116    1.087548
H     -0.144472    2.115434   -0.273218

