28
-303190.4615778192
O      1.217984   -0.000000   -0.000000
C      0.000000    0.000000    0.000000
C     -0.827434   -1.286328   -0.015579
C      0.072405   -2.529306   -0.038944
N     -0.676768   -3.788289   -0.053776
C      0.167278   -4.898802   -0.477214
C     -1.302786   -4.080916    1.229302
C     -1.829709   -1.238177   -1.195563
C     -2.696114    0.027673   -1.165380
C     -1.832823    1.296931   -1.173165
C     -0.811279    1.290073   -0.015579
H     -1.420703   -1.270328    0.913146
H      0.783202   -2.482725    0.807093
H      0.682060   -2.488621   -0.948383
H     -0.432402   -5.813963   -0.537221
H      0.577085   -4.694748   -1.472020
H      1.015211   -5.092009    0.209486
H     -0.570253   -4.186097    2.054730
H     -1.867552   -5.016583    1.155915
H     -2.008494   -3.290462    1.503623
H     -2.442729   -2.144289   -1.172076
H     -1.263749   -1.272403   -2.138370
H     -3.327178    0.019481   -0.264144
H     -3.379739    0.033902   -2.023530
H     -1.290642    1.361203   -2.126769
H     -2.458529    2.195259   -1.107666
H     -1.352687    1.363964    0.939793
H     -0.118055    2.134272   -0.074606

