40
-401863.1552134003
O      1.216107    0.000000    0.000000
C      0.000000    0.000000    0.000000
C     -0.812593   -1.281823   -0.031769
C     -2.076880   -1.205196    0.851392
C     -2.999539   -2.468649    0.750897
C     -2.168936   -3.737193    1.043231
C     -3.657342   -2.616031   -0.637000
C     -4.111051   -2.383642    1.820407
C     -2.791833    0.132045    0.569121
N     -1.916642    1.262996    0.901738
C     -2.611313    2.569404    1.130157
C     -3.531781    2.429274    2.361321
C     -3.439874    3.032454   -0.089935
C     -1.564114    3.649739    1.471306
C     -0.788922    1.307109   -0.031769
H     -1.108725   -1.432214   -1.082266
H     -0.146547   -2.104219    0.239129
H     -1.739641   -1.150323    1.896297
H     -1.638592   -3.654698    2.000219
H     -2.823850   -4.614708    1.100334
H     -1.426738   -3.935403    0.263080
H     -2.914690   -2.691358   -1.439682
H     -4.263261   -3.529555   -0.670643
H     -4.320530   -1.775473   -0.869529
H     -3.687777   -2.244646    2.822905
H     -4.697982   -3.309702    1.833047
H     -4.810844   -1.562097    1.633370
H     -3.691799    0.196544    1.178518
H     -3.114932    0.165348   -0.489649
H     -2.967699    2.035258    3.213120
H     -3.936568    3.409212    2.636220
H     -4.388219    1.772039    2.182047
H     -2.813935    3.136876   -0.983833
H     -4.246895    2.328534   -0.321483
H     -3.899264    4.008302    0.105365
H     -0.879413    3.292171    2.248065
H     -0.974565    3.957474    0.602341
H     -2.070893    4.544466    1.847098
H     -0.087496    2.096814    0.232159
H     -1.105757    1.475326   -1.085222

