40
-401862.20820300584
O      1.216021    0.000000   -0.000000
C      0.000000    0.000000    0.000000
C     -0.850145   -1.251439    0.013771
C     -1.931329   -1.244116   -1.109342
C     -1.550537   -2.095559   -2.366475
C     -1.481064   -3.586465   -1.972224
C     -0.194433   -1.674945   -2.970380
C     -2.650708   -1.947303   -3.440091
C     -2.315369    0.221692   -1.443205
N     -2.208579    1.065869   -0.243820
C     -3.097512    2.265021   -0.205692
C     -2.921531    3.185537   -1.435530
C     -2.803078    3.071513    1.074593
C     -4.560711    1.784559   -0.116576
C     -0.791762    1.309082    0.013771
H     -0.196102   -2.124469   -0.019380
H     -1.367642   -1.256592    0.981930
H     -2.829593   -1.711523   -0.684634
H     -0.693414   -3.787937   -1.238475
H     -2.432612   -3.928249   -1.545952
H     -1.269540   -4.204324   -2.853106
H      0.042926   -2.304774   -3.836286
H     -0.202667   -0.635762   -3.318363
H      0.625742   -1.777238   -2.251939
H     -3.638143   -2.207884   -3.037701
H     -2.705854   -0.928241   -3.838003
H     -2.451124   -2.616765   -4.285252
H     -1.674890    0.612205   -2.256070
H     -3.337775    0.245000   -1.819401
H     -3.189185    2.672209   -2.365642
H     -1.887462    3.536994   -1.528523
H     -3.563565    4.069767   -1.349989
H     -1.834348    3.579869    1.037313
H     -2.822148    2.420540    1.955926
H     -3.567966    3.843896    1.205870
H     -4.888565    1.255560   -1.016940
H     -5.230486    2.641914    0.012563
H     -4.686358    1.112459    0.738682
H     -0.648144    1.746157    1.007893
H     -0.306725    1.990823   -0.710683

