%nprocshared=8
%mem=8GB
%chk= 0.chk
# freq b3lyp/6-31g(d)

good luck!

0 1
O      1.215850   -0.000000    0.000000
C      0.000000    0.000000    0.000000
C     -0.848889   -1.270522   -0.001286
C     -1.749490   -1.257347    1.258755
C     -1.743654   -1.257732   -1.266838
C     -2.636521   -0.000000   -1.259988
C     -1.743654    1.257731   -1.266838
C     -0.848889    1.270522   -0.001286
C     -1.749490    1.257346    1.258755
C     -2.644441   -0.000001    1.261582
O     -3.532841   -0.000001    2.377561
C     -3.523703   -0.000000    0.002038
H     -0.178905   -2.135907    0.001578
H     -2.382881   -2.153009    1.280824
H     -1.130223   -1.274942    2.167609
H     -2.360343   -2.166240   -1.284193
H     -1.118485   -1.276492   -2.168909
H     -3.273105   -0.000001   -2.153676
H     -2.360344    2.166239   -1.284193
H     -1.118485    1.276491   -2.168909
H     -0.178905    2.135907    0.001578
H     -2.382882    2.153008    1.280824
H     -1.130223    1.274941    2.167609
H     -2.991173    0.000000    3.183887
H     -4.175229   -0.882674    0.021110
H     -4.175230    0.882673    0.021109


