%nprocshared=10
%mem=12GB
%chk= 0.chk
# freq b3lyp/6-31g(d)

good luck!

0 1
O      1.207477   -0.000000   -0.000000
C      0.000000    0.000000    0.000000
C     -1.004802   -1.158282    0.012556
C     -1.818819   -0.808116    1.300482
C     -1.818819    0.808116    1.300482
C     -1.004802    1.158282    0.012556
C     -1.850806    0.784974   -1.222765
C     -3.407865    0.806377   -1.067319
C     -3.908668    1.482184    0.167446
C     -3.173559    1.464836    1.284969
C     -1.850806   -0.784974   -1.222765
C     -3.407865   -0.806377   -1.067319
C     -3.908668   -1.482185    0.167446
C     -3.173559   -1.464836    1.284968
H     -0.576884   -2.161083    0.016640
H     -1.257935   -1.141545    2.179497
H     -1.257935    1.141544    2.179497
H     -0.576884    2.161083    0.016640
H     -1.482059    1.272623   -2.129022
H     -3.912559    1.189775   -1.959039
H     -4.888428    1.955419    0.149604
H     -3.530086    1.938974    2.196825
H     -1.482059   -1.272624   -2.129022
H     -3.912559   -1.189775   -1.959040
H     -4.888428   -1.955419    0.149603
H     -3.530086   -1.938975    2.196825


