33
-341710.6120883316
O      1.213557   -0.000000   -0.000000
C      0.000000    0.000000    0.000000
C     -0.873494   -1.271750    0.002753
C     -0.340674   -2.288838   -1.024588
C     -0.713667   -1.921088    1.402101
C     -2.309920   -0.714547   -0.290995
C     -3.436848   -1.598440    0.263165
C     -2.546117   -0.481002   -1.811695
C     -3.597383    0.638748   -1.907395
C     -3.367207    1.521764   -0.653645
C     -2.334724    0.781051    0.248052
C     -2.701403    0.975417    1.729162
C     -0.877647    1.250325    0.002753
H     -0.934879   -3.209695   -1.003343
H     -0.349149   -1.902664   -2.046809
H      0.694733   -2.543334   -0.779713
H      0.347254   -2.120403    1.583431
H     -1.078103   -1.290934    2.217358
H     -1.251768   -2.873866    1.448337
H     -4.423133   -1.184547    0.023738
H     -3.390810   -2.601671   -0.178292
H     -3.386483   -1.713042    1.349409
H     -2.851341   -1.397244   -2.329396
H     -1.618668   -0.146467   -2.292448
H     -4.608948    0.217700   -1.895903
H     -3.507560    1.200858   -2.842907
H     -3.002697    2.522459   -0.913354
H     -4.307149    1.672177   -0.110512
H     -2.761215    2.047695    1.953217
H     -1.961233    0.548197    2.413025
H     -3.676128    0.537968    1.968485
H     -0.759847    1.732638   -0.977051
H     -0.511801    1.971426    0.742393

