38
-508345.0673651707
O      1.212520   -0.000000   -0.000000
C      0.000000    0.000000    0.000000
C     -0.859346   -1.277160    0.007120
C     -0.265898   -2.376493    0.927387
C     -0.972726   -3.723328    0.715006
C     -0.194971   -2.021284    2.420044
C     -2.354350   -0.834012    0.196663
C     -2.455429    0.085613    1.405968
C     -1.632530    1.220699    1.312494
C     -1.591335    2.151816    2.347172
C     -2.402524    1.963825    3.470998
C     -3.242249    0.851324    3.554495
C     -3.269970   -0.091719    2.521467
C     -0.851703    1.292593    0.007120
C     -1.845339    1.153094   -1.137857
C     -2.673379    0.022856   -1.023334
C     -3.637781   -0.236404   -1.992311
C     -3.777034    0.636598   -3.077832
C     -2.949279    1.754269   -3.193653
C     -1.974636    2.014291   -2.223535
H     -0.783156   -1.675374   -1.015453
H      0.768896   -2.480488    0.574767
H     -0.457110   -4.518571    1.265576
H     -2.008972   -3.699816    1.075114
H     -0.991949   -4.008496   -0.343964
H      0.368394   -2.794749    2.955362
H     -1.187072   -1.957895    2.877390
H      0.314231   -1.066669    2.586316
H     -3.020287   -1.697714    0.274430
H     -0.943707    3.022087    2.274848
H     -2.382930    2.691003    4.278146
H     -3.876416    0.715134    4.426346
H     -3.919282   -0.961566    2.591497
H     -0.205615    2.168956   -0.070136
H     -4.278554   -1.111096   -1.906801
H     -4.532707    0.440764   -3.833826
H     -3.061428    2.427427   -4.039236
H     -1.328371    2.884113   -2.312796

