28
-303189.9797520998
O      1.217142   -0.000000    0.000000
C      0.000000    0.000000    0.000000
C     -0.816255   -1.289504   -0.000408
C     -1.353374   -1.561315   -1.422043
C     -1.935112   -1.224100    1.083962
C     -2.767832   -2.510988    1.080703
N     -2.745716   -0.010007    0.875949
C     -4.020783    0.060837    1.601013
C     -3.955592    0.116601    3.138152
C     -1.940707    1.198958    1.050878
C     -0.821877    1.277059   -0.000408
H     -0.119928   -2.090437    0.274284
H     -2.159022   -0.867111   -1.678074
H     -1.745228   -2.580265   -1.501426
H     -0.551238   -1.459481   -2.161206
H     -1.414490   -1.172644    2.061936
H     -2.098736   -3.378513    1.071729
H     -3.397533   -2.594572    1.971431
H     -3.413512   -2.570222    0.198761
H     -4.636566   -0.789843    1.293756
H     -4.539696    0.955749    1.234029
H     -4.969398    0.162511    3.552984
H     -3.464528   -0.767712    3.559813
H     -3.413635    1.000137    3.492368
H     -1.483040    1.255692    2.057474
H     -2.597760    2.070464    0.951045
H     -0.158928    2.128457    0.179327
H     -1.277687    1.396610   -0.992507

