28
-303191.89322131575
O      1.217330   -0.000000   -0.000000
C      0.000000    0.000000    0.000000
C     -0.834103   -1.278815   -0.006840
C      0.030385   -2.539573   -0.002062
C     -1.868365   -1.210636   -1.170139
C     -1.211672   -1.363083   -2.557940
N     -2.689980    0.002899   -0.995432
C     -3.906380    0.021483   -1.813572
C     -5.026766    0.859288   -1.191597
C     -1.914449    1.238622   -1.088931
C     -0.820931    1.279953   -0.006840
H     -1.440530   -1.247338    0.910528
H     -0.593927   -3.439112   -0.055538
H      0.733003   -2.550785   -0.839811
H      0.625862   -2.589858    0.914208
H     -2.552491   -2.058195   -1.032710
H     -1.955348   -1.249083   -3.354077
H     -0.418700   -0.626130   -2.728064
H     -0.763566   -2.355576   -2.667170
H     -4.255837   -1.013946   -1.903485
H     -3.711121    0.373917   -2.844164
H     -4.762626    1.920182   -1.122864
H     -5.934396    0.788443   -1.802079
H     -5.255345    0.501224   -0.182545
H     -2.589000    2.088013   -0.945863
H     -1.451981    1.373173   -2.085077
H     -0.151717    2.133957   -0.146454
H     -1.305532    1.374038    0.974609

