26
-268462.7769953881
O      1.219222   -0.000000   -0.000000
C      0.000000    0.000000    0.000000
C     -0.784545   -1.314430   -0.016158
C     -1.205926   -1.606284   -1.473349
C     -2.003047   -1.335626    0.925343
C     -1.692664   -1.255242    2.429892
C     -0.896786   -0.030966    2.925471
C     -1.454449    1.354052    2.511831
C     -0.710803    2.041512    1.352379
C     -0.762592    1.324854   -0.016158
H     -0.069287   -2.086941    0.293277
H     -0.336999   -1.619783   -2.139516
H     -1.911270   -0.853747   -1.846729
H     -1.699305   -2.582887   -1.535783
H     -2.697436   -0.532687    0.644674
H     -2.551577   -2.269473    0.741637
H     -2.650736   -1.289958    2.967546
H     -1.146643   -2.161352    2.727729
H      0.149840   -0.111519    2.606233
H     -0.868626   -0.092868    4.020704
H     -2.524109    1.272605    2.269834
H     -1.399384    2.031373    3.373340
H      0.345481    2.165579    1.624098
H     -1.120916    3.050834    1.219270
H     -1.803294    1.191313   -0.332288
H     -0.266672    1.962525   -0.756689

