26
-268463.29030545906
O      1.219279    0.000000   -0.000000
C      0.000000    0.000000    0.000000
C     -0.774576   -1.325808    0.015371
C     -0.170820   -2.260419    1.077021
C     -0.722528   -1.990372   -1.383672
C     -1.437206   -1.265657   -2.540182
C     -0.853206    0.115534   -2.930669
C     -1.643686    1.343775   -2.436253
C     -1.988443    1.388462   -0.938869
C     -0.784098    1.307667    0.015371
H     -1.824718   -1.131364    0.268549
H     -0.695518   -3.222234    1.086402
H     -0.243582   -1.825042    2.080236
H      0.887637   -2.437505    0.866129
H      0.335218   -2.130063   -1.645347
H     -1.154544   -2.995382   -1.285669
H     -2.508689   -1.170938   -2.312236
H     -1.382672   -1.931393   -3.410650
H      0.187753    0.180421   -2.590697
H     -0.803229    0.187178   -4.024490
H     -2.587079    1.404758   -2.997029
H     -1.075912    2.247324   -2.699068
H     -2.701481    0.589569   -0.700360
H     -2.521001    2.326022   -0.734434
H     -1.149877    1.434627    1.046866
H     -0.071033    2.118170   -0.171934

