22
-253851.73713968924
O      1.216487   -0.000000   -0.000000
C      0.000000    0.000000    0.000000
C     -0.830178   -1.274299    0.000401
C     -1.917121   -1.238288    1.100387
C     -1.296230   -1.433998    2.499301
N     -2.721143   -0.016297    0.922304
C     -3.945716    0.003746    1.707903
C     -1.952595    1.218814    1.050699
C     -0.827676    1.275725    0.000401
H     -0.165588   -2.134754    0.120059
H     -1.330553   -1.350578   -0.974318
H     -2.601635   -2.077334    0.920226
H     -2.056850   -1.387353    3.285922
H     -0.814248   -2.416041    2.561381
H     -0.530985   -0.681891    2.722171
H     -4.504492   -0.923460    1.538737
H     -3.788041    0.112360    2.797143
H     -4.573336    0.840162    1.379647
H     -2.636759    2.060965    0.894911
H     -1.520633    1.351974    2.060844
H     -0.168560    2.133221    0.163327
H     -1.286888    1.373541   -0.993181

