22
-253851.06917542682
O      1.217415   -0.000000   -0.000000
C      0.000000    0.000000    0.000000
C     -0.823009   -1.278412   -0.025045
C     -1.915143   -1.219965   -1.137347
C     -2.736687   -2.509537   -1.186290
N     -2.750417   -0.012881   -1.044951
C     -3.713745    0.017558    0.050444
C     -1.922607    1.187110   -1.124064
C     -0.826611    1.275299   -0.025045
H     -0.149863   -2.129361   -0.169318
H     -1.316430   -1.402201    0.950466
H     -1.388222   -1.132931   -2.098627
H     -3.526240   -2.431163   -1.941104
H     -3.199942   -2.741585   -0.220792
H     -2.089834   -3.352830   -1.450501
H     -4.282731    0.951288   -0.011287
H     -4.425122   -0.806312   -0.052643
H     -3.277655   -0.040193    1.065019
H     -2.570622    2.069243   -1.076592
H     -1.436373    1.199380   -2.108629
H     -1.308967    1.398340    0.955358
H     -0.163332    2.131154   -0.183115

