35
-483677.4725287849
O      1.212957   -0.000000   -0.000000
C      0.000000    0.000000    0.000000
C     -0.875227   -1.268713    0.005070
C     -0.506742   -2.237706    1.151100
C      0.810986   -2.987980    0.929438
C     -2.371287   -0.804100    0.033929
C     -2.546991    0.080024    1.259951
C     -1.708686    1.208321    1.250945
C     -1.716468    2.101899    2.318463
C     -2.583310    1.877858    3.393672
C     -3.424386    0.763837    3.399988
C     -3.405508   -0.141713    2.332943
C     -0.839724    1.303215    0.005070
C     -1.741386    1.199260   -1.216304
C     -2.579822    0.071967   -1.192008
C     -3.461152   -0.164407   -2.243027
C     -3.504376    0.727898   -3.320398
C     -2.664915    1.842949   -3.346114
C     -1.774228    2.080384   -2.293546
H     -0.694776   -1.780814   -0.950297
H     -0.468889   -1.687007    2.098707
H     -1.327106   -2.962311    1.251366
H      1.645816   -2.291133    0.823489
H      1.019294   -3.657455    1.771900
H      0.766175   -3.600036    0.019816
H     -3.042524   -1.668369    0.045206
H     -1.060401    2.968851    2.311797
H     -2.601430    2.576225    4.225960
H     -4.095917    0.596203    4.237734
H     -4.056059   -1.013186    2.341960
H     -0.178769    2.171717   -0.006090
H     -4.110966   -1.036447   -2.227041
H     -4.194032    0.549495   -4.141032
H     -2.702353    2.531075   -4.186243
H     -1.117932    2.946983   -2.312850

