33
-341710.3550928677
O      1.215572    0.000000    0.000000
C      0.000000    0.000000    0.000000
C     -0.846301   -1.272650    0.005367
C     -2.336264   -0.894066   -0.079501
C     -2.725939   -0.067543    1.177242
C     -4.237133    0.247077    1.246258
C     -5.136640   -0.996293    1.263058
C     -1.759916    1.188867    1.280273
C     -2.443211    2.538144    1.593828
C     -1.466898    3.690800    1.863068
C     -0.862106    1.252950    0.005367
C     -1.725746    1.249014   -1.279984
C     -2.550078   -0.067930   -1.364891
H     -0.619623   -1.841132    0.917864
H     -0.536898   -1.903808   -0.838025
H     -2.938128   -1.808212   -0.120642
H     -2.514908   -0.706038    2.047859
H     -4.538030    0.898420    0.415765
H     -4.435324    0.818788    2.159880
H     -5.105705   -1.546871    0.316694
H     -4.839895   -1.689587    2.060307
H     -6.180393   -0.713995    1.441529
H     -1.081905    1.003584    2.125582
H     -3.067237    2.409013    2.486225
H     -3.129499    2.824242    0.786743
H     -2.008991    4.581195    2.201075
H     -0.898464    3.974899    0.971344
H     -0.744906    3.424329    2.644978
H     -0.199855    2.121419    0.031632
H     -2.385082    2.124230   -1.271428
H     -1.077521    1.362985   -2.155925
H     -2.236241   -0.664257   -2.230458
H     -3.613812    0.147084   -1.512134

