26
-302439.9800999238
O      1.215995    0.000000   -0.000000
C      0.000000    0.000000    0.000000
C     -0.834257   -1.268139   -0.001323
C     -1.941065   -1.180834   -1.062857
N     -2.766983    0.015154   -0.890359
C     -3.904838   -0.026172   -1.817839
C     -4.839140    1.170097   -1.636182
C     -4.064912    2.480061   -1.811781
C     -2.857905    2.492977   -0.868914
C     -1.972998    1.247940   -1.037550
C     -0.829234    1.272277   -0.001323
H     -0.184061   -2.131303   -0.170339
H     -1.302842   -1.371431    0.987274
H     -2.590560   -2.060336   -0.987131
H     -1.480086   -1.210854   -2.071499
H     -4.448308   -0.961387   -1.637256
H     -3.556146   -0.057412   -2.871515
H     -5.279376    1.130954   -0.631216
H     -5.662864    1.099628   -2.357167
H     -3.722095    2.566125   -2.853097
H     -4.709922    3.345902   -1.618788
H     -3.209363    2.527426    0.171628
H     -2.243188    3.387063   -1.031711
H     -1.518362    1.281726   -2.051310
H     -1.278265    1.375171    0.997726
H     -0.170309    2.129295   -0.169355

