%nprocshared=10
%mem=12GB
%chk= 0.chk
# freq b3lyp/6-31g(d)

good luck!

0 1
C     -1.152037   -1.364378   -2.482646
C     -1.888323   -1.302826   -1.125059
C     -0.820375   -1.283977    0.002198
C     -2.775266   -0.027045   -0.976159
C     -3.965399   -0.024727   -1.951873
C     -4.827857   -1.287412   -1.797178
C     -3.989218   -2.568933   -1.918281
C     -2.790919   -2.549271   -0.955460
C     -1.947638    1.266213   -1.047478
C     -0.816889    1.286452    0.002198
C      0.000000    0.000000    0.000000
O      1.216899   -0.000000   -0.000000
H     -1.835936   -1.317792   -3.335002
H     -0.427060   -0.551648   -2.597342
H     -0.592331   -2.304128   -2.559695
H     -1.329912   -1.356752    0.975543
H     -0.135388   -2.134634   -0.079282
H     -3.203644   -0.076755    0.040140
H     -4.576609    0.870195   -1.773870
H     -3.603517    0.055252   -2.986403
H     -5.312701   -1.268355   -0.809790
H     -5.635850   -1.288797   -2.539661
H     -3.638163   -2.682433   -2.952682
H     -4.612325   -3.447967   -1.710108
H     -2.187829   -3.458950   -1.079826
H     -3.169941   -2.567652    0.077469
H     -2.603016    2.132507   -0.891605
H     -1.519943    1.384305   -2.051374
H     -1.265838    1.382854    1.003136
H     -0.137671    2.132730   -0.136564


