%nprocshared=10
%mem=12GB
%chk= 2.chk
# freq b3lyp/6-31g(d)

good luck!

0 1
O      1.216008    0.000000   -0.000000
C      0.000000    0.000000    0.000000
C     -0.848906   -1.268007    0.000418
C     -1.738102   -1.262074    1.268364
C     -1.746135   -1.257502   -1.260485
C     -2.635629   -0.000000   -1.243346
C     -1.746135    1.257502   -1.260485
C     -0.848906    1.268007    0.000418
C     -1.738102    1.262074    1.268364
C     -2.649105   -0.000000    1.308121
C     -3.485375   -0.000001    2.593987
C     -4.888746    0.000029    2.586846
C     -5.619395    0.000029    3.773052
C     -4.966923   -0.000011    5.009493
C     -5.798392   -0.000024    6.244120
O     -7.014212    0.000465    6.257438
O     -5.049331    0.000480    7.372501
C     -5.793717    0.001059    8.599504
C     -3.565555   -0.000038    5.036326
C     -2.845155   -0.000036    3.847166
C     -3.515496   -0.000000    0.023237
H     -0.179460   -2.134205    0.004072
H     -1.104412   -1.301609    2.162026
H     -2.361042   -2.166277    1.283460
H     -2.363877   -2.165633   -1.274881
H     -1.126840   -1.276049   -2.166638
H     -3.284806   -0.000000   -2.128294
H     -1.126841    1.276049   -2.166638
H     -2.363878    2.165632   -1.274881
H     -0.179460    2.134206    0.004072
H     -1.104411    1.301608    2.162025
H     -2.361042    2.166276    1.283461
H     -5.431094    0.000055    1.648361
H     -6.704499    0.000052    3.756698
H     -5.046883    0.001421    9.394123
H     -6.426326   -0.888188    8.666154
H     -6.426308    0.890380    8.665330
H     -3.046386   -0.000066    5.988287
H     -1.760230   -0.000062    3.900505
H     -4.168593    0.882700    0.013172
H     -4.168591   -0.882702    0.013171


