25
-278523.42519562703
O      1.217034    0.000000   -0.000000
C      0.000000    0.000000    0.000000
C     -0.828947   -1.284295   -0.007861
C      0.034805   -2.535144   -0.162085
C     -1.922848   -1.178572   -1.096955
N     -2.719281    0.032297   -0.930095
C     -3.976596    0.039988   -1.680757
C     -3.879701    0.042144   -3.216635
C     -1.911508    1.236471   -1.089679
C     -0.816925    1.284110   -0.007861
H     -1.358156   -1.309912    0.957184
H      0.559663   -2.534510   -1.123496
H     -0.580281   -3.440352   -0.105525
H      0.795419   -2.581174    0.621708
H     -2.588411   -2.046708   -1.020048
H     -1.434259   -1.235569   -2.090230
H     -4.543168    0.921782   -1.354028
H     -4.552527   -0.836821   -1.357177
H     -3.350051    0.925687   -3.589963
H     -3.360685   -0.846468   -3.592779
H     -4.884605    0.048978   -3.654590
H     -1.431072    1.298892   -2.085582
H     -2.563961    2.112213   -0.994089
H     -0.141757    2.132059   -0.155425
H     -1.301209    1.388132    0.972607

