17
-194457.9505143143
O      1.211055    0.000000    0.000000
C      0.000000    0.000000    0.000000
C     -0.900415   -1.240580    0.000155
C     -2.311193   -0.717602    0.329721
C     -3.455392   -1.604512   -0.158893
C     -2.310029    0.708837   -0.275553
C     -0.897100    1.245484    0.000155
H     -0.874207   -1.666524   -1.015169
H     -0.515947   -2.008979    0.678173
H     -2.388400   -0.616675    1.422923
H     -4.429626   -1.161956    0.081243
H     -3.408381   -1.738906   -1.247220
H     -3.417938   -2.598405    0.302077
H     -3.103653    1.338363    0.140194
H     -2.481984    0.642751   -1.358998
H     -0.829509    1.698751    0.999734
H     -0.530851    1.991364   -0.711902

