%nprocshared=10
%mem=12GB
%chk= 0.chk
# freq b3lyp/6-31g(d)

good luck!

0 1
O      1.212977   -0.000000   -0.000000
C      0.000000    0.000000    0.000000
C     -0.825911   -1.271473    0.002057
S     -1.699393   -1.506154    1.612735
C     -2.416027    0.196489    1.916115
C     -3.761132    0.094061    2.599166
C     -3.957949    0.730375    3.830913
C     -5.197075    0.672832    4.469895
C     -6.255111   -0.019445    3.880304
C     -6.067001   -0.656812    2.651434
C     -4.827744   -0.604894    2.016122
S     -2.556372    1.205002    0.380290
C     -0.766385    1.328116    0.002057
H     -1.560958   -1.259527   -0.807932
H     -0.162437   -2.131942   -0.105690
H     -1.720338    0.722345    2.574642
H     -3.136583    1.273972    4.291691
H     -5.333367    1.167900    5.427437
H     -7.220666   -0.065889    4.376521
H     -6.886167   -1.200360    2.188694
H     -4.678498   -1.114531    1.068873
H     -0.260268    2.019141    0.684622
H     -0.695920    1.759819   -1.003923


