%nprocshared=10
%mem=12GB
%chk= 0.chk
# freq b3lyp/6-31g(d)

good luck!

0 1
O      1.216120   -0.000000   -0.000000
C      0.000000    0.000000    0.000000
C     -0.815578   -1.283964    0.002819
C     -1.858476   -1.271699    1.140503
C     -2.712381   -0.006080    1.079782
Br    -4.057748   -0.103380    2.569868
C     -1.884852    1.283463    1.155101
C     -2.722073    2.573379    1.083684
C     -1.845969    3.834010    1.117517
C     -0.792706    3.824568    0.001726
C      0.051103    2.545149    0.046014
C     -0.825960    1.286134    0.002819
H     -0.137183   -2.136562    0.096471
H     -1.330742   -1.368764   -0.965618
H     -1.345288   -1.311736    2.108688
H     -2.493439   -2.160545    1.078158
H     -3.339108   -0.002705    0.182890
H     -1.337720    1.274821    2.109877
H     -3.311862    2.561198    0.154046
H     -3.439261    2.591096    1.910244
H     -1.341694    3.895903    2.092890
H     -2.480367    4.725444    1.038895
H     -0.142757    4.704586    0.082647
H     -1.296200    3.897744   -0.973847
H      0.653832    2.523942    0.963553
H      0.765033    2.515265   -0.783898
H     -1.394581    1.282824   -0.944324


