%nprocshared=10
%mem=12GB
%chk= 1.chk
# freq b3lyp/6-31g(d)

good luck!

0 1
O      1.217211   -0.000000   -0.000000
C      0.000000    0.000000    0.000000
C     -0.821724   -1.280285   -0.006337
C     -1.862968   -1.303609   -1.159309
C     -2.795469   -2.513644   -0.974591
C     -1.132911   -1.439043   -2.511376
C     -2.702089   -0.001758   -1.108097
C     -1.877667    1.299481   -1.135091
C     -2.752007    2.563932   -1.027740
C     -3.688911    2.814745   -2.217824
C     -4.462090    4.135823   -2.105824
C     -5.402013    4.387104   -3.289284
C     -0.818899    1.282107   -0.006337
H     -1.357594   -1.341177    0.953408
H     -0.140890   -2.135721   -0.064487
H     -3.343976   -2.452709   -0.026591
H     -2.228306   -3.452313   -0.975060
H     -3.532328   -2.568385   -1.785537
H     -0.398840   -0.642479   -2.673431
H     -0.592607   -2.391643   -2.562881
H     -1.846781   -1.413125   -3.343707
H     -3.306661   -0.010515   -0.187286
H     -3.414042   -0.011483   -1.942931
H     -1.340027    1.352270   -2.092967
H     -3.343183    2.512188   -0.100425
H     -2.088770    3.433877   -0.915179
H     -3.101284    2.818041   -3.148079
H     -4.408278    1.990137   -2.314399
H     -3.747742    4.966973   -2.022013
H     -5.041121    4.138060   -1.171417
H     -5.937375    5.337078   -3.180346
H     -4.847538    4.424011   -4.235024
H     -6.151475    3.590882   -3.376943
H     -0.135939    2.134050   -0.080548
H     -1.340049    1.353748    0.961949


