%nprocshared=8
%mem=4GB
%chk= 0.chk
# freq b3lyp/6-31g(d)

good luck!

0 1
O      1.216637   -0.000000    0.000000
C      0.000000    0.000000    0.000000
C     -0.821665   -1.283944    0.000436
C     -1.888188   -1.295063    1.125330
C     -1.240252   -1.496481    2.504563
C     -2.744311   -0.012356    1.050234
C     -1.900712    1.270859    1.102200
C     -0.819649    1.284720    0.000436
H     -1.331466   -1.350734   -0.972772
H     -0.139172   -2.135962    0.079041
H     -2.550758   -2.152386    0.944432
H     -0.707021   -2.453069    2.546485
H     -1.997909   -1.498799    3.297173
H     -0.512404   -0.711106    2.739625
H     -3.478922   -0.010103    1.865764
H     -3.319713   -0.023909    0.112944
H     -1.416869    1.362363    2.082846
H     -2.545371    2.151447    0.995093
H     -0.139152    2.135411    0.100349
H     -1.312919    1.363411   -0.980865


