27
-386030.3353649963
O      1.214869    0.000000    0.000000
C      0.000000    0.000000    0.000000
C     -0.839768   -1.281834   -0.000378
C     -2.336363   -0.921093   -0.011548
C     -2.632057   -0.087166    1.273806
C     -4.121108    0.205216    1.378124
O     -4.668833    1.245337    1.076515
O     -4.791718   -0.882171    1.821853
C     -6.219902   -0.738221    1.902954
C     -1.774957    1.210138    1.254286
C     -0.868890    1.248143   -0.000378
C     -1.765841    1.212862   -1.263075
C     -2.634804   -0.080242   -1.270141
H     -0.565850   -1.877933   -0.880764
H     -0.567971   -1.881310    0.878494
H     -2.948163   -1.829374   -0.003303
H     -2.371739   -0.712527    2.135138
H     -6.485065    0.072799    2.586179
H     -6.588982   -1.692982    2.278561
H     -6.641495   -0.523460    0.917313
H     -1.166438    1.276225    2.162637
H     -2.434590    2.083202    1.236701
H     -0.227178    2.133659    0.007208
H     -2.403592    2.103619   -1.256243
H     -1.144324    1.272933   -2.163322
H     -3.698740    0.173736   -1.312696
H     -2.420868   -0.685494   -2.159012

