%nprocshared=10
%mem=12GB
%chk= 1.chk
# freq b3lyp/6-31g(d)

good luck!

0 1
O      1.218512    0.000000   -0.000000
C      0.000000    0.000000    0.000000
C     -0.841066   -1.282274   -0.042431
C      0.014936   -2.561581    0.100582
C      0.610639   -2.665347    1.515107
C     -0.765294   -3.843701   -0.231049
C     -1.709146   -1.210090   -1.328862
C     -2.522333    0.091106   -1.419614
C     -1.674234    1.381515   -1.326297
C     -2.602081    2.604230   -1.228767
C     -0.767073    1.537643   -2.563360
C     -0.799913    1.294083   -0.042431
H     -1.540502   -1.229520    0.809586
H      0.849978   -2.471303   -0.606775
H     -0.183802   -2.770984    2.266670
H      1.259145   -3.545466    1.597120
H      1.208148   -1.784879    1.762870
H     -0.138057   -4.723971   -0.048636
H     -1.659307   -3.942681    0.399580
H     -1.086087   -3.883037   -1.277057
H     -2.399120   -2.059820   -1.348906
H     -1.059894   -1.318868   -2.208078
H     -3.261222    0.100034   -0.604463
H     -3.097418    0.100093   -2.355310
H     -3.226834    2.693712   -2.126140
H     -3.269481    2.529603   -0.361454
H     -2.024705    3.531408   -1.130417
H     -0.195759    2.471646   -2.507402
H     -1.366273    1.565164   -3.481592
H     -0.042891    0.721769   -2.657758
H     -0.103213    2.136371    0.019686
H     -1.459609    1.329091    0.836961


