41
-391810.7876869723
O      1.217448    0.000000   -0.000000
C      0.000000    0.000000    0.000000
C     -0.807973   -1.288416   -0.005792
C     -1.877948   -1.285812   -1.125947
C     -2.715556   -2.611913   -1.199432
C     -3.612457   -2.808955    0.039511
C     -1.766142   -3.823866   -1.323483
C     -3.607016   -2.592026   -2.460922
C     -2.727158    0.000000   -1.012148
C     -1.877949    1.285812   -1.125947
C     -2.715557    2.611913   -1.199431
C     -3.607018    2.592023   -2.460920
C     -3.612456    2.808955    0.039512
C     -1.766144    3.823866   -1.323486
C     -0.807973    1.288416   -0.005792
H     -0.102681   -2.116511   -0.100044
H     -1.304032   -1.376829    0.972756
H     -1.333635   -1.229330   -2.082528
H     -4.359003   -2.012944    0.136721
H     -3.030115   -2.841778    0.967596
H     -4.155798   -3.758563   -0.035665
H     -2.341155   -4.737561   -1.514888
H     -1.060985   -3.695026   -2.154284
H     -1.184333   -3.991916   -0.411565
H     -4.119754   -3.554021   -2.578613
H     -3.010862   -2.421351   -3.366173
H     -4.379968   -1.817939   -2.415423
H     -3.256994   -0.000000   -0.049887
H     -3.493269    0.000000   -1.790959
H     -1.333635    1.229330   -2.082528
H     -3.010866    2.421349   -3.366173
H     -4.119759    3.554018   -2.578611
H     -4.379969    1.817935   -2.415420
H     -3.030114    2.841780    0.967597
H     -4.359002    2.012944    0.136724
H     -4.155798    3.758562   -0.035665
H     -1.184334    3.991918   -0.411568
H     -2.341158    4.737561   -1.514891
H     -1.060987    3.695026   -2.154287
H     -0.102681    2.116511   -0.100044
H     -1.304031    1.376829    0.972757

