34
-352526.05684677337
O      1.216549    0.000000   -0.000000
C      0.000000    0.000000    0.000000
C     -0.813453   -1.281887    0.030883
C     -2.039346   -1.227820   -0.898827
C     -2.958752   -2.435333   -0.689306
C     -2.781886    0.101055   -0.691037
N     -1.894137    1.237277   -0.935331
C     -2.544097    2.490956   -1.421021
C     -3.731239    2.948026   -0.537714
C     -3.051785    2.239841   -2.859916
C     -1.515938    3.634834   -1.502272
C     -0.786253    1.321438    0.030883
C     -1.138792    1.671519    1.500601
H     -1.164649   -1.415665    1.067761
H     -0.150182   -2.122788   -0.195647
H     -1.678348   -1.230707   -1.936298
H     -2.416656   -3.375284   -0.843760
H     -3.367206   -2.450900    0.329499
H     -3.803427   -2.417907   -1.388453
H     -3.230683    0.109138    0.321506
H     -3.617720    0.145760   -1.392859
H     -3.409094    3.187606    0.480504
H     -4.506223    2.176654   -0.472990
H     -4.197860    3.845923   -0.960016
H     -2.224778    1.916326   -3.499878
H     -3.833665    1.474820   -2.902906
H     -3.478944    3.158612   -3.277650
H     -1.981819    4.501242   -1.983015
H     -0.646762    3.345241   -2.102783
H     -1.166499    3.960648   -0.517352
H     -0.071949    2.063726   -0.325382
H     -1.889348    0.995627    1.923409
H     -0.237882    1.608820    2.121751
H     -1.525312    2.692327    1.576766

