44
-450436.89563650184
O      1.218107    0.000000   -0.000000
C      0.000000    0.000000    0.000000
C     -0.807816   -1.291073   -0.006391
C     -1.995970   -1.322741    0.996156
C     -1.500151   -1.863141    2.361626
N     -1.141912   -3.285862    2.273973
C     -2.302441   -4.163796    2.350596
C     -0.151164   -3.661197    3.275674
C     -2.809491    0.024164    0.972320
C     -3.549288    0.023657   -0.398723
C     -1.877503    1.296949    1.118081
C     -2.740175    2.583592    1.028510
C     -3.863621    2.621880    2.079760
C     -4.743777    1.361127    2.040638
C     -3.905573    0.068727    2.072295
C     -1.097195    1.349471    2.459930
C     -0.808645    1.291923   -0.006391
H     -1.184483   -1.415788   -1.031512
H     -0.137052   -2.132149    0.185964
H     -2.696328   -2.081777    0.624389
H     -0.599503   -1.328410    2.671827
H     -2.251316   -1.699094    3.153410
H     -1.989180   -5.201438    2.192087
H     -2.821875   -4.107648    3.328535
H     -3.028359   -3.915068    1.570631
H     -0.512912   -3.547340    4.317134
H      0.748429   -3.048476    3.157429
H      0.132644   -4.709980    3.133852
H     -4.255394   -0.814852   -0.426819
H     -4.125190    0.932670   -0.578565
H     -2.873311   -0.098972   -1.248432
H     -3.172652    2.678508    0.025002
H     -2.085158    3.455954    1.154970
H     -4.481817    3.515693    1.926891
H     -3.423578    2.725668    3.080333
H     -5.373345    1.379965    1.142337
H     -5.435956    1.364062    2.892398
H     -4.563903   -0.803913    1.958976
H     -3.455596   -0.022326    3.066178
H     -0.660539    2.348072    2.581535
H     -0.262966    0.644526    2.484794
H     -1.720399    1.158548    3.336463
H     -1.288959    1.399749   -0.988485
H     -0.113845    2.130622    0.110088

