27
-339445.44126175303
O      1.216384   -0.000000    0.000000
C      0.000000    0.000000    0.000000
C     -0.814153   -1.288806    0.003966
C     -1.900121   -1.291479    1.113818
C     -2.727364   -2.567279    1.095354
C     -3.541295   -2.897236    0.001094
C     -4.299267   -4.067806   -0.002687
C     -4.257114   -4.936063    1.090420
C     -3.451481   -4.622104    2.184874
C     -2.695762   -3.448105    2.183866
C     -2.762706   -0.013595    1.022789
C     -1.903479    1.256055    1.101655
C     -0.820274    1.283316    0.003966
H     -1.305957   -1.380671   -0.976085
H     -0.130777   -2.135901    0.111777
H     -1.373834   -1.258364    2.078622
H     -3.586436   -2.234404   -0.860003
H     -4.923449   -4.302690   -0.861039
H     -4.846709   -5.848856    1.087308
H     -3.408926   -5.290015    3.041315
H     -2.069760   -3.211413    3.041623
H     -3.326912   -0.017779    0.079169
H     -3.505916   -0.017957    1.829074
H     -1.418630    1.306903    2.086386
H     -2.534891    2.148702    1.019383
H     -0.140557    2.133058    0.115338
H     -1.309334    1.371662   -0.978615

