59
-649155.9461199247
C     -7.745774    0.759029    7.621786
C     -7.874692    0.584271    6.096827
C     -6.727450   -0.316603    5.556110
C     -6.967650   -1.858191    5.560324
C     -6.021610   -2.447544    4.468080
C     -5.193055   -1.238240    3.994003
C     -4.443490   -1.298595    2.656001
C     -3.525414   -2.530445    2.569936
C     -2.655818   -2.531879    1.307116
C     -1.859858   -1.225656    1.190796
C     -0.847322   -1.261174    0.022777
C      0.000000    0.000000    0.000000
C     -0.818141    1.289208    0.022777
F      0.016928    2.382713    0.172670
C     -1.846253    1.281399    1.162657
O      1.212668    0.000000    0.000000
C     -2.777635    0.040107    1.165637
C     -3.632448    0.022811    2.482933
C     -4.523374    1.273919    2.678554
C     -5.336411    1.250754    3.990810
C     -6.166892   -0.036763    4.126966
C     -7.288269   -0.056035    3.065483
C     -3.685839    0.078448   -0.086213
C     -9.307287    0.129888    5.762876
H     -7.834973   -0.205884    8.137546
H     -6.777798    1.194918    7.895607
H     -8.532104    1.415592    8.013316
H     -7.734412    1.579622    5.648388
H     -5.872035   -0.131490    6.223000
H     -6.764067   -2.286320    6.547660
H     -8.009285   -2.099358    5.329060
H     -5.391143   -3.253657    4.856963
H     -6.601067   -2.874365    3.639669
H     -4.419214   -1.074708    4.763466
H     -5.180680   -1.376780    1.844211
H     -2.869161   -2.548430    3.453726
H     -4.126494   -3.446994    2.613406
H     -3.280643   -2.674299    0.414377
H     -1.960937   -3.381512    1.332436
H     -1.260915   -1.141099    2.112259
H     -0.173577   -2.118808    0.114860
H     -1.375600   -1.362106   -0.936178
H     -1.324077    1.389057   -0.948832
H     -1.283682    1.322397    2.105407
H     -2.421319    2.210460    1.094504
H     -2.899709    0.031967    3.308153
H     -5.210439    1.380592    1.830621
H     -3.900011    2.175250    2.676427
H     -5.974185    2.144255    4.035321
H     -4.643836    1.318965    4.842738
H     -6.896203   -0.009428    2.045469
H     -7.907529   -0.956145    3.130385
H     -7.948094    0.809358    3.193670
H     -4.223460    1.030461   -0.146090
H     -4.432978   -0.719719   -0.082215
H     -3.117720   -0.023582   -1.016467
H    -10.024231    0.897489    6.078167
H     -9.567977   -0.792443    6.295545
H     -9.462233   -0.047048    4.695178

