59
-649157.8743203465
C     -8.426394   -0.089785    7.461338
C     -8.034280    0.385280    6.049172
C     -6.756041   -0.342700    5.567929
C     -6.924119   -1.899257    5.570220
C     -6.013737   -2.460782    4.443672
C     -5.194854   -1.240667    3.995276
C     -4.442114   -1.294997    2.657982
C     -3.528702   -2.530382    2.567556
C     -2.658844   -2.530173    1.304822
C     -1.859837   -1.225682    1.191065
C     -0.847467   -1.261104    0.022962
C      0.000000    0.000000    0.000000
C     -0.818341    1.289122    0.022962
F      0.017029    2.383054    0.167118
C     -1.842500    1.281600    1.166565
O      1.212668   -0.000000   -0.000000
C     -2.775472    0.041465    1.168507
C     -3.629117    0.022248    2.486191
C     -4.527904    1.263969    2.682567
C     -5.336814    1.241691    3.997304
C     -6.177732   -0.042548    4.142661
C     -7.310962   -0.068831    3.092724
C     -3.684798    0.083811   -0.082451
C     -7.916637    1.918348    6.051297
H     -7.634497    0.144051    8.185460
H     -9.340499    0.412939    7.798708
H     -8.607458   -1.168435    7.502113
H     -8.856582    0.110665    5.371738
H     -5.957730   -0.087366    6.283447
H     -6.658526   -2.318618    6.545732
H     -7.972292   -2.170212    5.394547
H     -6.612023   -2.855974    3.612937
H     -5.380645   -3.282750    4.793064
H     -4.425380   -1.082811    4.770867
H     -5.180124   -1.368353    1.846258
H     -2.872880   -2.554284    3.451544
H     -4.132382   -3.445243    2.606347
H     -3.284036   -2.669016    0.411769
H     -1.966128   -3.381633    1.328145
H     -1.260749   -1.144018    2.112698
H     -0.173945   -2.118989    0.114448
H     -1.376055   -1.361442   -0.935912
H     -1.328006    1.387011   -0.946839
H     -2.416614    2.211598    1.102298
H     -1.277129    1.319527    2.107769
H     -2.896481    0.032880    3.311526
H     -3.914463    2.172276    2.675430
H     -5.220467    1.361140    1.837527
H     -4.642266    1.307634    4.847763
H     -5.959970    2.141725    4.036717
H     -7.938388   -0.961514    3.185085
H     -7.965487    0.801693    3.212608
H     -6.932166   -0.045881    2.066886
H     -4.435951   -0.710567   -0.077534
H     -3.118303   -0.021317   -1.013323
H     -4.217758    1.038498   -0.141728
H     -7.808698    2.331797    5.044637
H     -8.811894    2.370121    6.495347
H     -7.053244    2.248408    6.643254

