59
-649155.9230024737
C     -7.396995    2.152491   -6.511573
C     -7.802187    0.693583   -6.244542
C     -7.247220    0.119306   -4.918833
C     -7.670410   -1.371368   -4.695273
C     -6.545765   -2.047647   -3.863772
C     -5.642613   -0.875076   -3.451677
C     -4.230846   -1.166081   -2.921626
C     -4.257696   -2.150527   -1.739855
C     -2.869391   -2.355515   -1.125757
C     -2.227768   -1.023411   -0.713939
C     -0.855022   -1.254552   -0.035389
C      0.000000    0.000000    0.000000
C     -0.812971    1.290434   -0.035389
F     -1.680272    1.246350    1.075085
C     -1.655393    1.376617   -1.315576
O      1.214906   -0.000000    0.000000
C     -2.135281    0.001296   -1.892908
C     -3.567949    0.176687   -2.503126
C     -3.640805    1.219087   -3.641303
C     -5.064344    1.425874   -4.199887
C     -5.701272    0.099964   -4.663898
C     -4.963934   -0.449937   -5.905390
C     -1.113182   -0.469534   -2.954768
C     -9.338618    0.585454   -6.277211
H     -7.903594    2.532286   -7.407143
H     -7.679799    2.801826   -5.672942
H     -6.321414    2.265645   -6.673398
H     -7.413289    0.078829   -7.069978
H     -7.684884    0.720805   -4.105718
H     -8.636464   -1.429820   -4.183944
H     -7.801616   -1.879433   -5.658433
H     -5.989723   -2.774544   -4.469234
H     -6.939784   -2.594211   -3.000904
H     -6.169558   -0.352656   -2.634309
H     -3.637379   -1.625372   -3.726153
H     -4.940749   -1.762862   -0.968274
H     -4.669708   -3.114646   -2.062244
H     -2.939834   -3.009240   -0.245770
H     -2.219855   -2.879427   -1.840827
H     -2.885732   -0.563495    0.034500
H     -0.271192   -2.038005   -0.531064
H     -1.010246   -1.589852    0.999275
H     -0.159022    2.157399    0.092758
H     -1.082339    1.921890   -2.074218
H     -2.514283    2.007593   -1.056096
H     -4.188652    0.568543   -1.678587
H     -2.977381    0.922097   -4.462169
H     -3.262994    2.185494   -3.285776
H     -5.017080    2.159382   -5.012081
H     -5.698755    1.868435   -3.417678
H     -4.997719    0.275927   -6.725605
H     -5.413838   -1.377492   -6.274560
H     -3.909297   -0.660755   -5.706545
H     -0.105080   -0.558153   -2.535655
H     -1.046871    0.247478   -3.779203
H     -1.373715   -1.441678   -3.383995
H     -9.734503    0.977923   -7.221389
H     -9.685200   -0.447889   -6.176865
H     -9.788130    1.169279   -5.462768

