41
-613529.7407030521
C      0.186724   -2.637634   -5.409156
O      0.003653   -2.544747   -4.006323
C     -1.116311   -1.917879   -3.549078
C     -1.260644   -1.771075   -2.164890
O     -0.346708   -2.098048   -1.187985
C     -2.388633   -1.171193   -1.640749
C     -2.298894   -1.192292   -0.136269
C     -0.767728   -1.344892   -0.001963
C      0.000000    0.000000    0.000000
C     -0.771551    1.262734   -0.001963
C     -2.107221    1.322265    0.130372
O      1.219640   -0.000000   -0.000000
C     -2.955824    0.108432    0.376196
N     -4.323756    0.207456   -0.182262
C     -5.149602   -0.884058    0.398862
C     -6.626200   -0.769816    0.014092
C     -4.581528   -2.294063    0.119563
C     -3.083536   -2.390092    0.456170
C     -4.354739    0.328302   -1.656322
C     -3.368880   -0.561926   -2.404054
C     -3.230773   -0.680775   -3.792180
C     -2.143161   -1.374522   -4.345411
H      0.232013   -1.645082   -5.877242
H      1.140837   -3.148073   -5.551625
H     -0.612094   -3.223369   -5.884049
H     -0.446223   -1.931342    0.863167
H     -0.169934    2.163285   -0.096280
H     -2.621769    2.282333    0.135626
H     -3.092924    0.046055    1.467866
H     -5.091014   -0.714545    1.484734
H     -6.978327    0.259675    0.137092
H     -6.816049   -1.082161   -1.018978
H     -7.226748   -1.418583    0.661212
H     -4.735563   -2.542204   -0.938085
H     -5.143643   -3.036891    0.700474
H     -2.943117   -2.390429    1.547701
H     -2.665742   -3.331129    0.079823
H     -4.118549    1.373837   -1.903104
H     -5.383398    0.173221   -1.992174
H     -3.955920   -0.224598   -4.462393
H     -2.074587   -1.453807   -5.424805

