%nprocshared=8
%mem=4GB
%chk= 0.chk
# freq b3lyp/6-31g(d)

good luck!

0 1
O      1.217565    0.000000    0.000000
C      0.000000    0.000000    0.000000
C     -0.817528   -1.306961    0.005360
C     -1.387393   -1.510076    1.431916
C      0.093792   -2.493169   -0.341656
C     -1.966047   -1.201302   -1.036560
C     -2.811604    0.082618   -0.959989
C     -3.900594    0.092737   -2.040148
C     -1.897566    1.313993   -1.066867
C     -0.792283    1.303330    0.005360
H     -2.060387   -0.704380    1.741287
H     -0.576948   -1.572992    2.166818
H     -1.952489   -2.449079    1.472685
H      0.545288   -2.368105   -1.331407
H     -0.482615   -3.425945   -0.341401
H      0.909674   -2.586660    0.380302
H     -2.612849   -2.083770   -0.932578
H     -1.526197   -1.261860   -2.043720
H     -3.312146    0.116936    0.019443
H     -3.458738    0.061291   -3.044356
H     -4.566527   -0.772689   -1.942479
H     -4.515489    0.998185   -1.974970
H     -2.485596    2.236800   -0.982816
H     -1.434240    1.330182   -2.064463
H     -1.251789    1.423366    0.997524
H     -0.083751    2.126275   -0.126787


