30
-317043.4726190159
O      1.217303    0.000000    0.000000
C      0.000000    0.000000    0.000000
C     -0.847762   -1.264954   -0.012906
C     -1.513936   -1.332503   -1.411407
C     -2.320526   -0.026153   -1.673674
C     -2.298103    0.871636   -0.414248
C     -2.890408    0.048858    0.752028
C     -1.953090   -1.157626    1.063429
C     -0.850584    1.277725   -0.012906
C     -0.148450    2.467348   -0.718014
C     -0.838069    3.800554   -0.391955
C      0.046158    2.313213   -2.234616
H     -0.200099   -2.130063    0.157395
H     -2.166865   -2.213394   -1.442474
H     -0.747870   -1.482420   -2.180050
H     -1.914652    0.506493   -2.536720
H     -3.363168   -0.262490   -1.918304
H     -2.908766    1.766141   -0.583623
H     -3.893016   -0.301261    0.477940
H     -3.011597    0.681320    1.639428
H     -2.519194   -2.096413    1.082108
H     -1.496059   -1.052651    2.054384
H     -0.902304    1.572383    1.050189
H      0.854719    2.489190   -0.273599
H     -0.270629    4.640914   -0.808834
H     -0.920522    3.958206    0.690435
H     -1.849503    3.849609   -0.814699
H     -0.900599    2.393646   -2.781374
H      0.514925    1.356454   -2.488084
H      0.702102    3.108469   -2.608020

