%nprocshared=10
%mem=12GB
%chk= 2.chk
# freq b3lyp/6-31g(d)

good luck!

0 1
O      1.204577    0.000000   -0.000000
C      0.000000    0.000000    0.000000
C     -1.069627   -1.101575    0.074165
C     -2.099793    0.011882    0.434367
C     -1.055487    1.120466    0.074165
C     -0.787961    2.275866    1.036992
C     -1.924604    3.318532    1.066637
C     -1.654393    4.453487    2.031866
C     -2.097634    4.389710    3.359593
C     -1.816573    5.417325    4.261076
C     -1.084795    6.531416    3.846800
C     -0.638574    6.609353    2.526159
C     -0.922271    5.578866    1.629326
H     -1.245333   -1.568636   -0.902389
H     -0.887324   -1.893565    0.807696
H     -3.025579    0.014658   -0.145541
H     -2.351362    0.015413    1.499811
H     -1.236458    1.510305   -0.939109
H     -0.631340    1.880419    2.049768
H      0.152598    2.763124    0.750624
H     -2.864063    2.819430    1.337839
H     -2.065251    3.718274    0.053274
H     -2.673245    3.526823    3.688904
H     -2.173146    5.349472    5.285713
H     -0.867404    7.334355    4.546074
H     -0.072328    7.475081    2.192310
H     -0.574589    5.649332    0.600547


