%nprocshared=10
%mem=12GB
%chk= 0.chk
# freq b3lyp/6-31g(d)

good luck!

0 1
O      1.207512   -0.000000    0.000000
C      0.000000    0.000000    0.000000
C     -1.060995   -1.110144    0.049123
C     -2.117034   -0.003877    0.350076
C     -1.062971    1.111830    0.049123
C     -0.876425    2.258872    1.045406
C      0.362691    3.142216    0.769781
C      0.340961    3.835674   -0.577209
C      1.039207    3.302520   -1.670141
C      1.004887    3.930646   -2.916808
C      0.271045    5.104951   -3.091480
C     -0.427909    5.647006   -2.010727
C     -0.391329    5.016408   -0.766747
H     -1.188234   -1.599671   -0.923841
H     -0.899665   -1.885465    0.805297
H     -2.435117   -0.002784    1.397268
H     -3.004813   -0.004381   -0.286618
H     -1.195434    1.518606   -0.963028
H     -1.782874    2.879714    1.037664
H     -0.789666    1.844430    2.059304
H      1.258970    2.518590    0.846007
H      0.425007    3.893725    1.567475
H      1.611896    2.387871   -1.535322
H      1.556649    3.503774   -3.750574
H      0.247387    5.597194   -4.060173
H     -0.996750    6.565078   -2.134976
H     -0.931149    5.450752    0.072743


