%nprocshared=8
%mem=8GB
%chk= 0.chk
# freq b3lyp/6-31g(d)

good luck!

0 1
O      1.214209   -0.000000    0.000000
C      0.000000    0.000000    0.000000
C     -0.802594   -1.301059    0.037457
C     -2.012710   -1.317116   -0.924041
C     -1.562230   -1.603902   -2.350107
F     -2.602953   -1.582389   -3.212734
F     -0.651083   -0.705340   -2.799738
F     -0.990287   -2.824717   -2.445876
C     -2.843554   -0.021211   -0.809438
C     -2.005738    1.259289   -0.951317
C     -0.823571    1.280655    0.037457
H     -0.124880   -2.138507   -0.145760
H     -1.189927   -1.408551    1.060908
H     -2.654360   -2.168802   -0.667818
H     -3.648812   -0.034530   -1.551166
H     -3.326192   -0.030377    0.177134
H     -2.643895    2.133792   -0.779310
H     -1.624924    1.345397   -1.973871
H     -1.215641    1.378064    1.062517
H     -0.154716    2.127912   -0.138357


