26
-302433.7954666927
C     -0.964481   -1.282043    2.525038
C     -1.804185   -1.223948    1.233893
C     -0.868564   -1.253274   -0.018184
C     -1.688423   -1.182255   -1.334551
C     -2.639588    0.047374   -1.291984
C     -2.776945   -2.417015    1.231176
N     -2.556776    0.069214    1.209130
C     -2.332043    0.860207   -0.013698
C     -0.851744    1.271171   -0.018184
C      0.000000    0.000000    0.000000
O      1.214546   -0.000000   -0.000000
H     -0.256766   -0.449298    2.577263
H     -1.621245   -1.212854    3.399049
H     -0.396521   -2.218411    2.590366
H     -0.225059   -2.137623    0.004498
H     -0.994846   -1.112907   -2.180252
H     -2.245795   -2.113357   -1.475172
H     -2.516691    0.672919   -2.184971
H     -3.690093   -0.267671   -1.272295
H     -3.409899   -2.380162    2.126870
H     -3.436303   -2.415443    0.357055
H     -2.237701   -3.371046    1.249658
H     -3.552478   -0.111623    1.316878
H     -2.973670    1.746390    0.043244
H     -0.589747    1.865841   -0.902586
H     -0.609490    1.871938    0.865684

