36
-447418.6461742434
O      1.215074   -0.000000   -0.000000
C      0.000000    0.000000    0.000000
C     -0.821974   -1.282574    0.014560
C     -1.595958   -1.340678   -1.328701
C     -2.247223   -0.029293   -1.733471
C     -1.880882    1.197996   -1.145241
C     -2.524286    2.368316   -1.578291
C     -3.492735    2.340672   -2.578796
C     -3.845709    1.125414   -3.166819
C     -3.225570   -0.044090   -2.737855
C     -0.869163    1.260743    0.014560
C      0.006359    2.534090    0.032692
C      0.781490    2.838620   -1.254963
C     -1.663834    1.153840    1.361677
C     -2.465823   -0.143933    1.479337
N     -1.609790   -1.309253    1.259888
C     -2.299938   -2.568393    1.486727
H     -0.123413   -2.123834    0.060318
H     -0.877638   -1.639627   -2.106475
H     -2.347061   -2.139780   -1.296988
H     -2.264888    3.319993   -1.124970
H     -3.969823    3.264419   -2.894987
H     -4.601073    1.088578   -3.947108
H     -3.502053   -0.996389   -3.186145
H      0.721419    2.417119    0.854996
H     -0.624249    3.392193    0.299612
H      1.381050    3.747300   -1.126008
H      1.461999    2.018869   -1.498597
H      0.113497    2.998220   -2.107679
H     -2.340508    2.013418    1.440448
H     -0.948719    1.214516    2.191835
H     -3.332084   -0.119231    0.793381
H     -2.874021   -0.221799    2.494886
H     -2.682336   -2.588897    2.513648
H     -1.595919   -3.399886    1.371429
H     -3.156436   -2.746658    0.809151

