18
-218362.0798083462
O                     1.211014000000     0.000000000000     0.000000000000
C                     0.000000000000     0.000000000000     0.000000000000
C                    -0.933772000000    -1.210498000000    -0.011803000000
C                    -2.145136000000    -0.660996000000     0.775569000000
C                    -1.512989000000    -1.271730000000    -1.458195000000
C                    -2.471564000000    -0.037596000000    -1.519427000000
C                    -2.323403000000     0.594880000000    -0.113755000000
C                    -0.922277000000     1.235317000000    -0.011803000000
H                    -0.458100000000    -2.130661000000     0.331064000000
H                    -3.009179000000    -1.334476000000     0.749989000000
H                    -1.914587000000    -0.423610000000     1.820777000000
H                    -2.061499000000    -2.210544000000    -1.590602000000
H                    -0.726828000000    -1.243833000000    -2.219162000000
H                    -2.202369000000     0.664212000000    -2.316135000000
H                    -3.505988000000    -0.350518000000    -1.697767000000
H                    -3.141615000000     1.264242000000     0.164860000000
H                    -0.792202000000     1.786808000000     0.928953000000
H                    -0.662808000000     1.916114000000    -0.830063000000

