%nprocshared=10
%mem=12GB
%chk= 0.chk
# freq b3lyp/6-31g(d)

good luck!

0 1
O      1.216723   -0.000000    0.000000
C      0.000000    0.000000    0.000000
C     -0.851528   -1.263101    0.003425
C     -1.743444   -1.252722    1.271280
C     -1.743978   -1.256525   -1.260121
C     -2.633168    0.000000   -1.246020
C     -1.743978    1.256525   -1.260121
C     -0.851528    1.263101    0.003425
C     -1.743442    1.252722    1.271281
C     -2.666178    0.000001    1.320692
C     -3.580870    0.000001    2.624626
C     -4.497645    1.245412    2.678695
C     -2.732890    0.000024    3.918991
C     -4.497615   -1.245431    2.678720
C     -3.518177    0.000002    0.018157
H     -0.185105   -2.131877    0.012503
H     -2.341471   -2.171855    1.274609
H     -1.099082   -1.289923    2.156999
H     -1.122045   -1.278070   -2.164711
H     -2.362137   -2.164633   -1.273566
H     -3.279487    0.000001   -2.133630
H     -2.362136    2.164634   -1.273566
H     -1.122044    1.278070   -2.164711
H     -0.185104    2.131878    0.012503
H     -2.341467    2.171856    1.274614
H     -1.099078    1.289918    2.156999
H     -5.185044    1.295922    1.828153
H     -5.111272    1.209089    3.586531
H     -3.930049    2.181000    2.712207
H     -2.094883    0.885785    4.001420
H     -3.396971    0.000012    4.791349
H     -2.094842   -0.885706    4.001425
H     -5.184992   -1.295991    1.828164
H     -3.929995   -2.181004    2.712279
H     -5.111263   -1.209091    3.586540
H     -4.171534    0.880333   -0.007446
H     -4.171538   -0.880327   -0.007446


