21
-243034.72979075555
O      1.211943    0.000000   -0.000000
C      0.000000    0.000000    0.000000
C     -0.919102   -1.229935   -0.005769
C     -0.254884   -2.511904    0.462014
C     -2.137738   -0.669948    0.772749
C     -1.500300   -1.262574   -1.459256
C     -2.465198   -0.037045   -1.517083
C     -2.319619    0.588180   -0.108593
C     -0.921311    1.231995   -0.005769
H      0.633170   -2.726490   -0.141979
H      0.072708   -2.429893    1.504447
H     -0.940758   -3.363528    0.384640
H     -2.999861   -1.346768    0.744573
H     -1.908690   -0.438608    1.820439
H     -2.041594   -2.205440   -1.600370
H     -0.710213   -1.227006   -2.216754
H     -2.202765    0.670903   -2.310743
H     -3.497673   -0.356542   -1.695584
H     -3.138927    1.254983    0.172949
H     -0.664680    1.919490   -0.819315
H     -0.790851    1.776937    0.938863

