25
-291616.7627047701
O      1.211794   -0.000000    0.000000
C      0.000000    0.000000    0.000000
C     -0.904218   -1.240989   -0.007944
C     -2.313334   -0.665562   -0.239624
C     -2.577721   -0.351806   -1.748013
C     -2.470472    1.166465   -2.007116
C     -1.118667    1.700867   -1.490515
C     -0.905091    1.237001   -0.007944
C     -2.245852    0.683447    0.534527
C     -3.449951    1.599948    0.278645
C     -3.603597    1.877077   -1.243245
H     -0.823786   -1.720989    0.977840
H     -0.571230   -1.973540   -0.750845
H     -3.092504   -1.324343    0.157893
H     -3.577695   -0.695755   -2.039570
H     -1.866200   -0.898213   -2.381059
H     -2.563517    1.369145   -3.081111
H     -1.113173    2.796347   -1.538867
H     -0.287934    1.359059   -2.120050
H     -0.459347    2.035281    0.592287
H     -2.155087    0.482213    1.610330
H     -3.319448    2.535631    0.835865
H     -4.353629    1.127386    0.683305
H     -4.574408    1.519944   -1.608212
H     -3.568829    2.954062   -1.447991

