%nprocshared=10
%mem=12GB
%chk= 0.chk
# freq b3lyp/6-31g(d)

good luck!

0 1
O      1.218523   -0.000000    0.000000
C      0.000000    0.000000    0.000000
C     -0.821866   -1.282606    0.005958
C     -1.717725   -1.277996   -1.257242
C     -2.701015   -0.074264   -1.203182
C     -2.355602    0.822908    0.004662
C     -2.600027   -0.003720    1.287795
C     -1.717670   -1.286710    1.266810
C     -0.865613    1.274907    0.005958
C     -0.397345    2.378020   -1.021726
C      0.870377    3.057183   -0.455351
C     -0.055639    1.809160   -2.415647
C     -1.490564    3.454433   -1.173765
H     -0.134647   -2.133721    0.001535
H     -2.261121   -2.229213   -1.307356
H     -1.088182   -1.231104   -2.153242
H     -3.733867   -0.426622   -1.090925
H     -2.674457    0.494855   -2.137056
H     -3.010798    1.699160    0.017984
H     -3.662619   -0.266094    1.354315
H     -2.373387    0.606319    2.170708
H     -2.338560   -2.190698    1.249891
H     -1.096158   -1.352713    2.166764
H     -0.693458    1.725849    0.996588
H      1.234942    3.823233   -1.151042
H      0.655941    3.551740    0.500979
H      1.664749    2.326200   -0.290152
H      0.285638    2.619446   -3.071178
H      0.749513    1.070428   -2.359672
H     -0.919591    1.344064   -2.901497
H     -1.110051    4.286842   -1.777871
H     -1.791684    3.863606   -0.201230
H     -2.387731    3.071658   -1.672822


