38
-367142.7887543545
O      1.218061    0.000000    0.000000
C      0.000000    0.000000    0.000000
C     -0.812321   -1.293555    0.004504
C     -1.317562   -1.625444    1.432112
C     -0.199019   -1.885817    2.450652
C     -0.737309   -2.255427    3.836616
C     -1.960059   -1.224214   -1.034997
C     -2.840110    0.041270   -0.922496
C     -4.078216    0.044982   -1.888632
C     -4.931623    1.307430   -1.634865
C     -3.668085    0.016755   -3.375528
C     -4.971200   -1.181364   -1.596952
C     -1.929154    1.280669   -1.055292
C     -0.808592    1.289424    0.004504
H     -0.117392   -2.089340   -0.290694
H     -1.954308   -2.519069    1.359464
H     -1.968609   -0.822804    1.804765
H      0.445171   -2.693431    2.077221
H      0.446997   -1.002460    2.529386
H      0.079445   -2.443076    4.542528
H     -1.356713   -3.160085    3.795725
H     -1.356468   -1.450200    4.251548
H     -1.514688   -1.259052   -2.038456
H     -2.564000   -2.132478   -0.932742
H     -3.267133    0.063013    0.092822
H     -4.415543    2.226410   -1.931017
H     -5.862519    1.258948   -2.212196
H     -5.203388    1.398825   -0.575451
H     -3.098971   -0.884748   -3.628006
H     -3.061725    0.886965   -3.650695
H     -4.560706    0.027304   -4.012679
H     -5.899048   -1.122390   -2.178193
H     -5.247382   -1.229854   -0.535907
H     -4.483805   -2.125206   -1.861611
H     -2.503967    2.207159   -0.960039
H     -1.470739    1.297655   -2.053337
H     -1.260332    1.403520    1.001740
H     -0.119119    2.126886   -0.138530

