30
-374295.6015454361
O      1.215346    0.000000    0.000000
C      0.000000    0.000000    0.000000
C     -0.849395   -1.283421   -0.008868
N     -0.042900   -2.490374    0.095940
C      0.770203   -2.833921   -1.073629
C      1.726934   -3.963150   -0.697112
O      1.020761   -5.105421   -0.224014
C      0.230394   -4.773549    0.907997
C     -0.768084   -3.661922    0.582571
C     -1.861514   -1.216905   -1.192473
C     -2.715027    0.058426   -1.144064
C     -1.836597    1.315819   -1.159104
C     -0.808636    1.293681   -0.008868
H     -1.448502   -1.232341    0.914833
H      1.345442   -1.956542   -1.377021
H      0.153657   -3.168560   -1.929355
H      2.297492   -4.294559   -1.570138
H      2.427391   -3.603857    0.073420
H     -0.292399   -5.689422    1.201630
H      0.875815   -4.448499    1.740505
H     -1.499817   -4.050056   -0.152604
H     -1.319866   -3.391453    1.492192
H     -1.312575   -1.250744   -2.142824
H     -2.500963   -2.107224   -1.166342
H     -3.331462    0.052973   -0.232869
H     -3.412161    0.074593   -1.990969
H     -2.451368    2.221015   -1.087579
H     -1.301690    1.374743   -2.117083
H     -0.108183    2.131764   -0.068220
H     -1.342686    1.369698    0.950455

