30
-374296.38000975916
O      1.217193    0.000000   -0.000000
C      0.000000    0.000000    0.000000
C     -0.839869   -1.295282    0.004038
N     -0.108363   -2.554335    0.021096
C      0.771015   -2.838537   -1.121011
C      1.219482   -4.297579   -1.045646
O      1.887555   -4.575232    0.177917
C      1.044016   -4.294175    1.286381
C      0.585681   -2.836646    1.281774
C     -1.893546   -1.233265   -1.130299
C     -2.752180    0.036474   -1.042850
C     -1.884630    1.301002   -1.101327
C     -0.809162    1.294251    0.004038
H     -1.411159   -1.262099    0.946828
H      0.219397   -2.688983   -2.055554
H      1.655049   -2.184013   -1.135779
H      1.933472   -4.522006   -1.844344
H      0.342851   -4.958177   -1.155253
H      1.630087   -4.512650    2.184668
H      0.161730   -4.956032    1.266916
H     -0.112547   -2.676252    2.114056
H      1.456723   -2.179438    1.434451
H     -2.509631   -2.137108   -1.068872
H     -1.392652   -1.254407   -2.106989
H     -3.485622    0.045031   -1.858376
H     -3.327614    0.028540   -0.105449
H     -2.503780    2.201281   -1.009091
H     -1.391730    1.358670   -2.081706
H     -0.113885    2.133788   -0.089794
H     -1.303196    1.378122    0.984335

