29
-327092.1278681335
O      1.212494   -0.000000   -0.000000
C      0.000000    0.000000    0.000000
C     -0.935348   -1.206792    0.008800
C     -2.089375   -0.664110    0.883403
C     -1.608873   -1.242439   -1.397009
C     -2.581790   -0.017937   -1.365957
C     -2.320340    0.605899    0.025991
C     -0.911060    1.248794    0.008800
C     -0.585253    2.155369    1.210307
N     -1.459790    3.324378    1.308514
C     -1.375813    3.938243    2.628498
C     -1.205992    4.309899    0.264740
H     -0.441934   -2.133850    0.305714
H     -1.792717   -0.454851    1.917016
H     -2.957648   -1.332423    0.901762
H     -0.875692   -1.187855   -2.208226
H     -2.153627   -2.185236   -1.515432
H     -2.390232    0.690792   -2.179074
H     -3.624301   -0.341930   -1.457080
H     -3.096737    1.289999    0.374650
H     -0.730577    1.808900   -0.917703
H     -0.706851    1.580817    2.136441
H      0.484501    2.433003    1.153052
H     -0.369465    4.336909    2.864581
H     -2.089563    4.766863    2.693252
H     -1.638375    3.203518    3.397282
H     -1.365310    3.872240   -0.725193
H     -0.176976    4.719660    0.296569
H     -1.907444    5.143873    0.374078

