25
-353897.08592429984
O      1.215352   -0.000000   -0.000000
C      0.000000    0.000000    0.000000
C     -0.855689   -1.262436    0.003485
C     -1.750490   -1.247607    1.269949
C     -1.748817   -1.232461   -1.262601
C     -2.645338    0.023735   -1.247745
C     -1.746009    1.265064   -1.245292
F     -2.543933    2.418423   -1.232820
C     -0.843882    1.275892    0.003485
C     -1.733923    1.270638    1.274369
C     -2.633517    0.017236    1.273668
C     -3.528536    0.028393    0.017026
H     -0.191917   -2.132379   -0.003497
H     -2.374880   -2.151341    1.281436
H     -1.123947   -1.279572    2.170775
H     -2.375560   -2.132931   -1.287864
H     -1.124707   -1.253622   -2.165930
H     -3.272163    0.047323   -2.147522
H     -1.140527    1.313904   -2.159638
H     -0.177641    2.143456   -0.017350
H     -2.340306    2.182922    1.285580
H     -1.098455    1.289379    2.168735
H     -3.261384    0.020656    2.173708
H     -4.170520    0.916114    0.014771
H     -4.187377   -0.850017    0.010375

