%nprocshared=10
%mem=12GB
%chk= 1.chk
# freq b3lyp/6-31g(d)

good luck!

0 1
C      3.439318   -8.525389    0.700312
C      2.655311   -7.386228    1.379470
C      3.606009   -6.603355    2.299796
C      1.944302   -6.510460    0.319870
C      0.975741   -7.344409   -0.584850
C     -0.173718   -6.395255   -1.022889
C      0.300394   -5.011548   -0.553188
C     -0.706052   -3.853392   -0.480970
C     -1.481068   -3.678143   -1.797054
C     -2.396905   -2.450455   -1.765532
C     -1.603022   -1.177347   -1.443891
C     -0.846591   -1.290621   -0.063972
C     -1.825822   -1.320405    1.137574
C      0.064404   -2.559451   -0.086188
C      0.864283   -2.782055    1.217742
C      1.808657   -4.000542    1.150266
C      1.062455   -5.297460    0.774574
C      0.119772   -5.728619    1.920639
C     -2.447878    0.103130   -1.566598
C     -1.600609    1.368269   -1.370455
C     -0.778477    1.310610   -0.063972
C      0.000000    0.000000    0.000000
O      1.218625   -0.000000    0.000000
H      4.221166   -8.122219    0.042753
H      3.931848   -9.156888    1.449342
H      2.794846   -9.170626    0.094976
H      1.882533   -7.851583    2.009499
H      3.077514   -5.889718    2.937725
H      4.152141   -7.289558    2.958595
H      4.349226   -6.043959    1.717221
H      2.733325   -6.091299   -0.325141
H      1.506534   -7.755206   -1.449657
H      0.580614   -8.204408   -0.030344
H     -0.352470   -6.431442   -2.102534
H     -1.119106   -6.670515   -0.538319
H      1.076298   -4.692419   -1.270283
H     -1.444745   -4.081526    0.302300
H     -0.765665   -3.570564   -2.627056
H     -2.068257   -4.580295   -2.008754
H     -3.197156   -2.594630   -1.025814
H     -2.895847   -2.327341   -2.736330
H     -0.810326   -1.103180   -2.207573
H     -2.589240   -0.541032    1.079058
H     -2.347607   -2.279981    1.196893
H     -1.290986   -1.181683    2.082715
H      0.804984   -2.378410   -0.879980
H      1.455591   -1.888462    1.431948
H      0.174092   -2.913116    2.060692
H      2.324214   -4.095509    2.112351
H      2.587845   -3.807963    0.398278
H      0.688507   -5.894282    2.842533
H     -0.408916   -6.660524    1.693825
H     -0.638854   -4.973218    2.144238
H     -2.914157    0.124930   -2.560284
H     -3.276029    0.086363   -0.845623
H     -0.905240    1.469554   -2.214767
H     -2.231986    2.265009   -1.374971
H     -1.452660    1.388412    0.798471
H     -0.059750    2.132930   -0.007019


