37
-377196.68154153426
O      1.217048    0.000000   -0.000000
C      0.000000    0.000000    0.000000
C     -0.839285   -1.274473    0.046557
C     -0.002806   -2.557418   -0.169614
C      0.500281   -2.718697   -1.613134
C     -0.761401   -3.810670    0.293075
C     -2.080938   -1.110762   -0.854420
C     -2.793812    0.221705   -0.604329
N     -1.892594    1.339308   -0.896428
C     -2.544230    2.673073   -1.089159
C     -3.511969    2.581021   -2.287876
C     -1.465656    3.713497   -1.456301
C     -3.314294    3.154638    0.161674
C     -0.771023    1.322700    0.046557
H     -1.215726   -1.296978    1.086231
H      0.882778   -2.444218    0.467822
H     -0.322892   -2.899157   -2.315172
H      1.049212   -1.831945   -1.943705
H      1.179721   -3.576239   -1.682164
H     -0.120411   -4.697067    0.221088
H     -1.649334   -4.001324   -0.322529
H     -1.090189   -3.721884    1.336121
H     -2.780824   -1.935868   -0.675587
H     -1.788893   -1.148895   -1.909639
H     -3.666294    0.278679   -1.257227
H     -3.168753    0.247190    0.439391
H     -3.001604    2.151923   -3.156655
H     -3.867758    3.581803   -2.554761
H     -4.398465    1.976146   -2.073873
H     -0.832096    3.985182   -0.606480
H     -1.946420    4.634048   -1.803058
H     -0.825197    3.336077   -2.260852
H     -4.131452    2.471986    0.420222
H     -3.753665    4.143196   -0.014885
H     -2.654589    3.239777    1.032879
H     -1.092941    1.471747    1.101023
H     -0.048948    2.102841   -0.189310

