31
-327857.5785614428
O      1.215647    0.000000   -0.000000
C      0.000000    0.000000    0.000000
C     -0.827297   -1.271709    0.037838
C     -2.076675   -1.180411   -0.862779
C     -1.727687   -1.366886   -2.345516
C     -2.794372    0.157949   -0.601527
N     -1.916611    1.293552   -0.900190
C     -2.598808    2.610560   -1.103260
C     -3.398066    3.069946    0.137578
C     -1.543347    3.679991   -1.453524
C     -3.546367    2.496184   -2.316018
C     -0.789589    1.310240    0.037838
H     -0.185801   -2.122742   -0.211039
H     -1.149963   -1.397734    1.083685
H     -2.768245   -1.980922   -0.565998
H     -1.068376   -0.567313   -2.697436
H     -1.225240   -2.326616   -2.511976
H     -2.632798   -1.349552   -2.964502
H     -3.149905    0.173986    0.448860
H     -3.679693    0.207509   -1.237847
H     -2.753080    3.165977    1.018689
H     -4.203520    2.368350    0.381543
H     -3.856524    4.049254   -0.041779
H     -2.044119    4.586724   -1.808105
H     -0.931083    3.968919   -0.593855
H     -0.880295    3.321109   -2.248270
H     -3.933433    3.486565   -2.578250
H     -4.413927    1.858526   -2.120777
H     -3.009661    2.093745   -3.181518
H     -1.110882    1.463282    1.092127
H     -0.083947    2.101531   -0.209871

