31
-327862.6354639496
O      1.217671   -0.000000    0.000000
C      0.000000    0.000000    0.000000
C     -0.827404   -1.280674   -0.012032
C      0.037624   -2.534958   -0.136455
C     -1.895278   -1.194761   -1.125419
N     -2.735406    0.000000   -0.995492
C     -3.887583    0.000003   -1.931097
C     -4.764808    1.248277   -1.737094
C     -4.764828   -1.248255   -1.737080
C     -1.895276    1.194761   -1.125420
C     -0.827403    1.280673   -0.012032
C      0.037625    2.534957   -0.136454
H     -1.378143   -1.300957    0.940987
H      0.783450   -2.572683    0.661908
H     -0.579498   -3.438784   -0.080644
H      0.580232   -2.545534   -1.087788
H     -2.517176   -2.088388   -1.054764
H     -1.388760   -1.230086   -2.112897
H     -3.520820   -0.000006   -2.978021
H     -5.680437    1.149870   -2.329167
H     -5.047686    1.353272   -0.683125
H     -4.276842    2.172488   -2.057985
H     -5.047704   -1.353237   -0.683109
H     -4.276880   -2.172477   -2.057966
H     -5.680458   -1.149837   -2.329150
H     -2.517174    2.088389   -1.054767
H     -1.388757    1.230083   -2.112897
H     -1.378144    1.300956    0.940987
H     -0.579497    3.438784   -0.080644
H      0.783450    2.572683    0.661909
H      0.580234    2.545534   -1.087787

