%nprocshared=8
%mem=4GB
%chk= 2.chk
# freq b3lyp/6-31g(d)

good luck!

0 1
O      1.217956    0.000000    0.000000
C      0.000000    0.000000    0.000000
C     -0.841055   -1.284204   -0.044180
C      0.020239   -2.561130    0.096056
C     -0.753241   -3.846756   -0.238301
C      0.614517   -2.665193    1.511267
C     -1.714391   -1.213848   -1.329067
C     -2.556456    0.069606   -1.397118
C     -1.688531    1.330404   -1.304874
C     -0.798352    1.296561   -0.044180
H     -1.538360   -1.236087    0.809877
H      0.855785   -2.466086   -0.609908
H     -1.650078   -3.949170    0.387689
H     -1.068020   -3.889237   -1.285946
H     -0.123018   -4.723911   -0.051570
H      1.210605   -1.784192    1.760589
H      1.264084   -3.544507    1.593241
H     -0.180687   -2.772495    2.261814
H     -1.059771   -1.274023   -2.211012
H     -2.375097   -2.085653   -1.369104
H     -3.284206    0.067427   -0.572267
H     -3.139798    0.080692   -2.326377
H     -1.045208    1.398798   -2.192939
H     -2.311416    2.232986   -1.297454
H     -1.437492    1.349788    0.849366
H     -0.098814    2.136915   -0.015758


