%nprocshared=8
%mem=4GB
%chk= 0.chk
# freq b3lyp/6-31g(d)

good luck!

0 1
O      1.217850   -0.000000    0.000000
C      0.000000    0.000000    0.000000
C     -0.835907   -1.286378    0.015450
C      0.032964   -2.567212    0.001780
C     -0.757913   -3.789481    0.492830
C      0.689041   -2.848792   -1.359476
C     -1.931540   -1.213233   -1.079438
C     -2.780088    0.060998   -0.967216
C     -1.904969    1.317386   -1.055989
C     -0.797171    1.300956    0.015450
H     -1.367716   -1.257938    0.983364
H      0.845350   -2.383869    0.716166
H     -1.194326   -3.616028    1.484410
H     -0.104521   -4.666740    0.566089
H     -1.575255   -4.050223   -0.191204
H     -0.052570   -3.109547   -2.124710
H      1.261417   -1.984552   -1.708381
H      1.380159   -3.695902   -1.276259
H     -1.460786   -1.241327   -2.071053
H     -2.571944   -2.100660   -1.013011
H     -3.539496    0.074322   -1.758975
H     -3.324252    0.058517   -0.011148
H     -2.511690    2.224355   -0.946625
H     -1.442383    1.367983   -2.051547
H     -0.096932    2.133307   -0.101144
H     -1.261330    1.393536    1.009588


