23
-243799.04053764083
O      1.217817    0.000000   -0.000000
C      0.000000    0.000000    0.000000
C     -0.831517   -1.287619    0.019335
C      0.025792   -2.564765   -0.045259
C      0.715886   -2.836951   -1.388222
C     -1.958916   -1.220426   -1.040911
C     -2.804740    0.053763   -0.912944
C     -1.929845    1.308813   -1.028035
C     -0.799106    1.299888    0.019335
H     -1.334154   -1.275150    1.002651
H     -0.617222   -3.417488    0.212276
H      0.789898   -2.499441    0.737432
H      1.331153   -3.741312   -1.320431
H     -0.005171   -2.995345   -2.198371
H      1.371535   -2.006836   -1.665874
H     -1.518981   -1.256147   -2.046293
H     -2.590201   -2.113305   -0.945837
H     -3.583937    0.065196   -1.685223
H     -3.324555    0.056035    0.056610
H     -1.489137    1.352215   -2.033817
H     -2.533673    2.216969   -0.912352
H     -1.241757    1.399549    1.022643
H     -0.102098    2.132180   -0.116585

