38
-518553.3235544791
O      1.216869    0.000000    0.000000
C      0.000000    0.000000    0.000000
C     -0.816252   -1.283715    0.013144
C     -1.929678   -1.269378   -1.048413
N     -2.713434   -0.034495   -0.948710
C     -4.072120   -0.133525   -1.198269
C     -4.940630    1.074977   -0.965292
C     -4.863427    1.847892    0.201875
C     -5.765012    2.890583    0.418052
C     -6.744964    3.176560   -0.534299
C     -6.834480    2.402593   -1.693956
C     -5.947302    1.348061   -1.900791
O     -4.590372   -1.189280   -1.553010
C     -1.950814    1.222000   -1.068120
C     -0.835506    1.283059    0.013144
C      0.008086    2.563202   -0.109937
C      0.539142    2.794012   -1.532929
C     -0.593771    2.757807   -2.567702
C     -1.378997    1.439590   -2.484845
H     -1.278202   -1.380113    1.005835
H     -0.143773   -2.133705   -0.133930
H     -2.615637   -2.104954   -0.912449
H     -1.494519   -1.375562   -2.051381
H     -4.113299    1.615929    0.953417
H     -5.705196    3.475167    1.332127
H     -7.443057    3.992666   -0.368560
H     -7.603478    2.614146   -2.431908
H     -6.029123    0.718192   -2.781094
H     -2.642192    2.042732   -0.870459
H     -1.347028    1.278829    0.989116
H      0.840703    2.510138    0.598657
H     -0.616874    3.417133    0.187040
H      1.279458    2.020077   -1.768692
H      1.062909    3.756819   -1.577803
H     -0.192735    2.886698   -3.580445
H     -1.279876    3.600318   -2.394332
H     -0.714297    0.609664   -2.759676
H     -2.207735    1.433853   -3.203713

