38
-518553.70298868115
O      1.216738    0.000000   -0.000000
C      0.000000    0.000000    0.000000
C     -0.808991   -1.292043    0.011954
C     -1.911452   -1.265073   -1.059986
N     -2.711856   -0.043272   -0.953205
C     -4.077313    0.010301   -1.169435
C     -4.901326   -1.223137   -0.908258
C     -4.744651   -2.010473    0.241164
C     -5.603661   -3.082828    0.484137
C     -6.620756   -3.383485   -0.423617
C     -6.789810   -2.595266   -1.564743
C     -5.944554   -1.512306   -1.797812
O     -4.634968    1.048102   -1.520135
C     -1.962315    1.221373   -1.067661
C     -0.843428    1.275063    0.011954
C     -0.009200    2.562448   -0.101368
C      0.507306    2.817189   -1.525718
C     -0.637013    2.798540   -2.548468
C     -1.416467    1.476166   -2.485339
H     -0.130831   -2.136527   -0.140946
H     -1.274064   -1.397093    1.002403
H     -2.559729   -2.135026   -0.967934
H     -1.446485   -1.318895   -2.054882
H     -3.966566   -1.767322    0.959905
H     -5.481790   -3.679019    1.384427
H     -7.285681   -4.222578   -0.237456
H     -7.587629   -2.818923   -2.267683
H     -6.086089   -0.872941   -2.663458
H     -2.683885    2.011502   -0.848575
H     -1.357006    1.262715    0.986715
H     -0.638735    3.406904    0.211375
H      0.829410    2.506631    0.600094
H      1.030440    3.780948   -1.558645
H      1.246174    2.048146   -1.782966
H     -0.247920    2.951874   -3.562590
H     -1.324964    3.633032   -2.348245
H     -2.262508    1.487923   -3.181443
H     -0.751233    0.657221   -2.793864

