32
-351775.94363818766
O      1.217060   -0.000000    0.000000
C      0.000000    0.000000    0.000000
C     -0.818241   -1.282738   -0.020385
C     -1.841569   -1.283404   -1.197613
N     -2.642199   -2.505174   -1.330006
C     -1.906562   -3.641133   -1.891431
C     -2.871853   -4.751078   -2.323720
C     -3.755798   -5.194437   -1.150636
C     -4.440611   -3.978577   -0.513150
C     -3.411468   -2.901118   -0.148321
C     -2.714678   -0.017199   -1.136891
C     -1.854658    1.255586   -1.166951
C     -0.821772    1.282492   -0.020385
H     -1.370555   -1.352110    0.928112
H     -0.131485   -2.132018   -0.077244
H     -1.259101   -1.219387   -2.127481
H     -1.175307   -4.061138   -1.170998
H     -1.333919   -3.286321   -2.756435
H     -2.299684   -5.598624   -2.721739
H     -3.502274   -4.369241   -3.137235
H     -3.131989   -5.695538   -0.395646
H     -4.500079   -5.929100   -1.481879
H     -4.995075   -4.272789    0.387040
H     -5.163340   -3.548379   -1.218466
H     -2.757874   -3.291002    0.658364
H     -3.926677   -2.023268    0.254157
H     -3.321530   -0.016727   -0.220802
H     -3.412743   -0.031276   -1.981184
H     -2.493146    2.144614   -1.107361
H     -1.325052    1.315829   -2.127743
H     -1.354014    1.362863    0.939755
H     -0.141626    2.135203   -0.100109

