32
-351774.1575075562
O      1.216515    0.000000   -0.000000
C      0.000000    0.000000    0.000000
C     -0.796706   -1.302745    0.004417
C     -1.901875   -1.335170   -1.076463
N     -2.754316   -2.541311   -0.988101
C     -2.055420   -3.788214   -0.644964
C     -3.049889   -4.934839   -0.423088
C     -3.933823   -5.159726   -1.653805
C     -4.582278   -3.835218   -2.068667
C     -3.525850   -2.737120   -2.225259
C     -2.761560   -0.059786   -0.944465
C     -1.925846    1.221425   -1.064554
C     -0.819519    1.279085    0.004417
H     -0.073171   -2.111662   -0.112001
H     -1.272602   -1.407049    0.992110
H     -1.390767   -1.307168   -2.061418
H     -1.487651   -3.642668    0.275796
H     -1.329970   -4.079332   -1.433699
H     -2.493576   -5.845949   -0.169024
H     -3.679028   -4.685306    0.441474
H     -4.695545   -5.923181   -1.452926
H     -3.316640   -5.537640   -2.482109
H     -5.305929   -3.520701   -1.305357
H     -5.130781   -3.945720   -3.012716
H     -4.020454   -1.800355   -2.493606
H     -2.851598   -2.994617   -3.069310
H     -3.547965   -0.042946   -1.705130
H     -3.269666   -0.092806    0.029123
H     -1.468016    1.270373   -2.062220
H     -2.572802    2.101857   -0.976117
H     -1.285480    1.376466    0.997092
H     -0.145959    2.129610   -0.133927

