32
-351774.8866529756
O      1.217291   -0.000000    0.000000
C      0.000000    0.000000    0.000000
C     -0.816391   -1.286951   -0.003382
C     -1.838710   -1.318495    1.157116
N     -1.198844   -1.323677    2.490043
C      0.017161   -2.144553    2.607705
C      0.670697   -1.970264    3.984227
C     -0.299814   -2.305944    5.120501
C     -1.594238   -1.506877    4.940851
C     -2.163808   -1.702547    3.532691
C     -2.749531   -0.076789    0.997222
C     -1.946431    1.230228    1.061486
C     -0.829388    1.275504   -0.003382
H     -0.145790   -2.147797   -0.014233
H     -1.397971   -1.316976   -0.935510
H     -2.453456   -2.231151    1.027006
H     -0.204973   -3.219472    2.439916
H      0.736596   -1.834636    1.848536
H      1.566373   -2.602000    4.034021
H      1.003615   -0.928388    4.078987
H     -0.530531   -3.381359    5.099550
H      0.155345   -2.098928    6.096964
H     -2.348362   -1.807734    5.679247
H     -1.394861   -0.438241    5.095375
H     -2.474457   -2.761502    3.406932
H     -3.067190   -1.096592    3.423534
H     -3.267164   -0.156908    0.030700
H     -3.535674   -0.064373    1.758990
H     -1.493483    1.313811    2.054969
H     -2.612254    2.091707    0.931500
H     -0.161604    2.130821    0.135241
H     -1.286448    1.366855   -1.001233

