25
-278525.00312555954
O      1.217400   -0.000000    0.000000
C      0.000000    0.000000    0.000000
C     -0.822680   -1.288504   -0.009008
C      0.050498   -2.537373   -0.127390
C     -1.886943   -1.204496   -1.124141
N     -2.702665   -0.000000   -0.999199
C     -3.813417   -0.000000   -1.941780
C     -1.886944    1.204496   -1.124140
C     -0.822680    1.288504   -0.009008
C      0.050498    2.537373   -0.127391
H     -1.374119   -1.307437    0.943481
H      0.791447   -2.571165    0.675640
H      0.598874   -2.545479   -1.075397
H     -0.562472   -3.444198   -0.075215
H     -1.380829   -1.256803   -2.111365
H     -2.544812   -2.079179   -1.058755
H     -4.435344    0.886616   -1.777906
H     -4.435343   -0.886617   -1.777907
H     -3.489410    0.000000   -3.000964
H     -2.544813    2.079179   -1.058753
H     -1.380830    1.256804   -2.111365
H     -1.374119    1.307437    0.943481
H     -0.562472    3.444198   -0.075215
H      0.791447    2.571165    0.675640
H      0.598874    2.545479   -1.075397

