29
-327098.14051638806
O      1.213898   -0.000000   -0.000000
C      0.000000    0.000000    0.000000
C     -0.945781   -1.187695   -0.071241
C     -2.239754   -0.628356    0.591076
C     -3.464589   -1.547918    0.438378
C     -2.069843   -0.357913    2.100458
C     -1.323532   -1.227223   -1.586343
C     -2.228145    0.029688   -1.759497
C     -2.285894    0.652812   -0.337958
C     -3.433261    1.632521   -0.129837
C     -0.876379    1.266981   -0.071241
N     -0.358040    2.189500   -1.077273
H     -0.526570   -2.116727    0.322244
H     -3.720000   -1.774001   -0.599298
H     -3.288995   -2.500892    0.952102
H     -4.346178   -1.088589    0.901196
H     -2.907332    0.232649    2.491080
H     -1.144609    0.165368    2.358051
H     -2.059880   -1.307809    2.648146
H     -0.434142   -1.203222   -2.223353
H     -1.856176   -2.156483   -1.811343
H     -1.804230    0.750574   -2.462309
H     -3.229208   -0.236773   -2.113724
H     -3.359014    2.467250   -0.837751
H     -4.405840    1.153569   -0.292748
H     -3.431215    2.054532    0.883155
H     -0.879459    1.715984    0.936016
H     -0.607264    3.147800   -0.844583
H      0.660631    2.136410   -1.054630

