35
-436610.51100148103
O      1.216259    0.000000    0.000000
C      0.000000    0.000000    0.000000
C     -0.852034   -1.263712   -0.001557
C     -1.752971   -1.249419    1.257813
C     -1.738231   -1.253207   -1.272406
C     -2.622693    0.009399   -1.277139
C     -1.726590    1.262024   -1.277818
C     -0.850141    1.265980   -0.001557
C     -1.757231    1.256614    1.253541
C     -2.672874    0.006408    1.277683
C     -3.588854   -0.034257    2.508534
C     -4.481652   -1.107008    2.680356
C     -5.329619   -1.181063    3.783479
C     -5.309539   -0.177453    4.753992
C     -4.432209    0.893884    4.602556
C     -3.583842    0.963109    3.493986
C     -3.523252    0.016230   -0.025891
H     -0.186657   -2.133082    0.008955
H     -2.357558   -2.164474    1.271909
H     -1.136572   -1.265763    2.165853
H     -1.108474   -1.282413   -2.171126
H     -2.361331   -2.157894   -1.288097
H     -3.253255    0.009862   -2.175781
H     -2.339952    2.172981   -1.301021
H     -1.090776    1.279914   -2.172596
H     -0.181752    2.132789    0.015681
H     -2.364638    2.171379    1.255102
H     -1.131789    1.284686    2.154942
H     -4.519101   -1.902551    1.940999
H     -6.006998   -2.025238    3.884569
H     -5.969153   -0.232098    5.615798
H     -4.402062    1.684481    5.348023
H     -2.914068    1.811798    3.410073
H     -4.170366    0.903581   -0.028265
H     -4.187915   -0.856140   -0.046201

