18
-265387.2124325218
O      1.207326    0.000000    0.000000
C      0.000000    0.000000    0.000000
C     -0.920522   -1.228115    0.022566
C     -1.333651   -1.597422   -1.396453
C     -1.612351   -0.733255   -2.393946
C     -1.612351    0.733255   -2.393946
C     -1.333651    1.597422   -1.396453
C     -0.920522    1.228115    0.022566
C     -2.119489    0.671355    0.766507
C     -2.119489   -0.671355    0.766507
H     -0.428104   -2.075443    0.509367
H     -1.441553   -2.661069   -1.598319
H     -1.909446   -1.175291   -3.343497
H     -1.909446    1.175291   -3.343497
H     -1.441553    2.661069   -1.598319
H     -0.428104    2.075443    0.509367
H     -2.904160    1.300714    1.175703
H     -2.904160   -1.300714    1.175703

