59
-586892.3998649528
C     -0.987903   -7.035727    0.804566
C     -0.019094   -6.409689   -0.212234
C      1.270917   -7.250868   -0.258427
C      0.315014   -4.923701    0.064161
C      1.286958   -4.325408   -1.007446
C      0.966241   -2.810580   -1.124631
C     -0.000950   -2.555784    0.041734
C     -0.840639   -1.274655    0.053505
C      0.000000    0.000000    0.000000
C     -0.797192    1.291574    0.053505
C     -1.662024    1.304728    1.332573
C     -2.371434    2.652611    1.545559
C     -3.102555    2.685069    2.895522
C     -4.054605    1.491084    3.048094
C     -3.347134    0.149791    2.785567
C     -2.623941    0.075411    1.411402
C     -3.680566    0.090895    0.282680
C     -1.738833   -1.218414    1.342324
C     -2.515498   -2.538865    1.536615
C     -1.631968   -3.800380    1.454887
C     -0.838298   -3.865630    0.136068
C     -1.797296   -4.046463   -1.062776
O      1.218748   -0.000000   -0.000000
H     -1.986731   -6.592599    0.759486
H     -1.099142   -8.110359    0.615213
H     -0.615342   -6.919068    1.830478
H     -0.486529   -6.473244   -1.206247
H      1.040877   -8.301423   -0.472299
H      1.967709   -6.900795   -1.026199
H      1.793085   -7.216932    0.707127
H      0.823892   -4.889671    1.041069
H      1.149792   -4.831459   -1.971119
H      2.330336   -4.490437   -0.720528
H      1.852825   -2.179181   -1.055359
H      0.486140   -2.583082   -2.085215
H      0.614858   -2.524933    0.954368
H     -1.497197   -1.254484   -0.828789
H     -0.095189    2.131353    0.046954
H     -1.436218    1.377019   -0.836286
H     -0.963080    1.190973    2.177774
H     -3.079037    2.845245    0.727310
H     -1.628007    3.459331    1.501371
H     -2.356597    2.656812    3.703411
H     -3.650782    3.628635    3.011166
H     -4.901723    1.607705    2.358940
H     -4.485732    1.479666    4.057353
H     -2.603834   -0.018764    3.579547
H     -4.078959   -0.662194    2.869078
H     -4.254185    1.021616    0.274537
H     -3.239784   -0.020486   -0.712849
H     -4.399667   -0.724625    0.413392
H     -1.035783   -1.146474    2.188962
H     -3.008465   -2.526567    2.515291
H     -3.319015   -2.614099    0.794324
H     -0.922620   -3.799872    2.295646
H     -2.271251   -4.679527    1.589359
H     -2.495354   -3.211299   -1.173470
H     -1.257535   -4.142688   -2.010199
H     -2.400472   -4.953019   -0.938749

