34
-352526.4161293374
O      1.218931   -0.000000    0.000000
C      0.000000    0.000000    0.000000
C     -0.830126   -1.275827   -0.032348
C      0.028992   -2.536163   -0.111482
C     -1.817083   -1.157915   -1.238720
N     -2.648048    0.036411   -1.261739
C     -4.008214    0.049824   -0.651486
C     -4.899146    0.997296   -1.488588
C     -4.648810   -1.349113   -0.724298
C     -4.029990    0.511676    0.827280
C     -1.857582    1.272867   -1.204203
C     -1.160194    1.560862   -2.545674
C     -0.820980    1.276376   -0.032348
H     -1.437913   -1.294250    0.884968
H      0.732871   -2.585063    0.724054
H      0.621161   -2.547389   -1.032983
H     -0.597073   -3.435790   -0.093260
H     -1.209955   -1.181509   -2.155377
H     -2.438770   -2.052094   -1.277140
H     -4.933911    0.659585   -2.529332
H     -4.533456    2.029159   -1.480801
H     -5.920706    1.013321   -1.091452
H     -5.697787   -1.277501   -0.419143
H     -4.623054   -1.747313   -1.744398
H     -4.166904   -2.069038   -0.054198
H     -5.054827    0.499386    1.217192
H     -3.654364    1.534269    0.940654
H     -3.426433   -0.147846    1.460822
H     -2.547805    2.100023   -1.020251
H     -0.385723    0.821243   -2.776815
H     -1.892393    1.553433   -3.358899
H     -0.672956    2.542235   -2.520945
H     -1.363151    1.356486    0.918115
H     -0.141441    2.130982   -0.109077

