35
-342477.39663601975
O      1.217274   -0.000000   -0.000000
C      0.000000    0.000000    0.000000
C     -0.820093   -1.281289   -0.005679
C     -1.862884   -1.306911   -1.157122
C     -2.795759   -2.515982   -0.969060
C     -1.135922   -1.444278   -2.510562
C     -2.698004   -0.003772   -1.102597
C     -1.874858    1.298509   -1.133337
C     -2.803060    2.526596   -1.046662
C     -2.130591    3.905548   -1.163556
C     -1.437195    4.173603   -2.506896
C     -0.878503    5.596508   -2.613906
C     -0.815620    1.285646   -0.005679
H     -0.137646   -2.135466   -0.063557
H     -1.354989   -1.342276    0.954657
H     -2.229289   -3.455098   -0.969964
H     -3.342102   -2.453652   -0.019935
H     -3.534426   -2.570676   -1.778336
H     -0.401622   -0.648391   -2.675072
H     -1.851850   -1.418468   -3.341143
H     -0.596465   -2.397327   -2.562618
H     -3.301540   -0.013670   -0.181376
H     -3.413406   -0.001294   -1.936595
H     -1.340832    1.342629   -2.092053
H     -3.351451    2.479636   -0.093971
H     -3.562376    2.438870   -1.837753
H     -2.902233    4.672887   -1.007845
H     -1.407271    4.043733   -0.347922
H     -2.152668    3.998172   -3.323439
H     -0.620435    3.455217   -2.657965
H     -0.138169    5.791472   -1.828271
H     -0.389019    5.762678   -3.580217
H     -1.674893    6.343816   -2.509987
H     -1.336401    1.360452    0.962831
H     -0.122375    2.128023   -0.077276

