40
-401865.1434489199
O      1.217629   -0.000000    0.000000
C      0.000000    0.000000    0.000000
C     -0.864139   -1.260049    0.020541
C     -0.081497   -2.597862   -0.032161
C      0.716672   -2.797826   -1.331703
C      0.811669   -2.795380    1.205463
C     -1.995642   -1.106216   -1.039549
C     -3.036974   -2.231750   -0.963429
C     -2.692163    0.257847   -0.887581
N     -1.751409    1.364296   -1.058891
C     -2.358902    2.704846   -1.331313
C     -1.230714    3.735662   -1.542483
C     -3.154889    2.626583   -2.651181
C     -3.286664    3.188377   -0.193556
C     -0.762735    1.327365    0.020541
H     -1.374953   -1.221366    1.000800
H     -0.842131   -3.389011    0.008547
H      1.188373   -3.787689   -1.334605
H      1.504636   -2.046221   -1.427629
H      0.076594   -2.739383   -2.219889
H      1.632622   -2.074976    1.221754
H      0.235439   -2.681429    2.132783
H      1.240159   -3.804805    1.206087
H     -1.539046   -1.114819   -2.037760
H     -3.853105   -2.048065   -1.672462
H     -3.476288   -2.300166    0.040236
H     -2.607862   -3.207586   -1.207581
H     -3.471089    0.325840   -1.649231
H     -3.202390    0.289364    0.097982
H     -0.718202    3.999122   -0.612239
H     -0.488653    3.353780   -2.251953
H     -1.650567    4.661527   -1.948973
H     -3.465830    3.631255   -2.956664
H     -2.532909    2.200099   -3.445260
H     -4.065275    2.025568   -2.564561
H     -3.685902    4.183653   -0.420483
H     -4.139509    2.514871   -0.053681
H     -2.750197    3.259291    0.759716
H     -1.218271    1.445617    1.028054
H     -0.015316    2.108805   -0.104542

