40
-401864.07635443745
O      1.217084    0.000000    0.000000
C      0.000000    0.000000    0.000000
C     -0.816321   -1.287665   -0.021546
C     -1.242539   -1.662447   -1.480590
C     -0.091090   -1.499652   -2.487086
C     -1.773317   -3.104857   -1.538981
C     -2.009083   -1.150028    0.964174
C     -1.551837   -1.335467    2.419225
C     -2.737236    0.195598    0.770525
N     -1.834059    1.326894    0.996313
C     -2.488281    2.652954    1.226617
C     -1.400156    3.709564    1.509369
C     -3.367975    2.557849    2.490946
C     -3.351131    3.115856    0.030211
C     -0.779018    1.316331   -0.021546
H     -0.137656   -2.077709    0.325174
H     -2.056282   -0.989510   -1.786044
H      0.240307   -0.460649   -2.579921
H      0.780700   -2.092217   -2.185422
H     -0.405263   -1.840137   -3.480462
H     -2.110319   -3.346455   -2.553708
H     -0.983110   -3.818200   -1.272511
H     -2.618546   -3.273932   -0.864171
H     -2.740854   -1.935858    0.738765
H     -2.404739   -1.278479    3.106286
H     -0.838270   -0.558886    2.711975
H     -1.073439   -2.311826    2.557365
H     -3.559384    0.240297    1.487384
H     -3.193311    0.226419   -0.238485
H     -0.699075    3.345616    2.268292
H     -1.866711    4.626539    1.883897
H     -0.832287    3.982660    0.614736
H     -3.722652    3.555426    2.771077
H     -2.790615    2.148294    3.326470
H     -4.255660    1.934614    2.345864
H     -4.177741    2.423315   -0.163815
H     -3.786711    4.101623    0.229995
H     -2.756165    3.199917   -0.886583
H     -1.176095    1.453318   -1.051719
H     -0.049969    2.104481    0.159812

