27
-292357.0888468317
O      1.211472   -0.000000   -0.000000
C      0.000000    0.000000    0.000000
C     -0.880678   -1.265142    0.019046
C     -0.768044   -1.962392    1.387013
C     -2.276577   -0.752602   -0.294120
C     -2.459813    0.045065   -1.563166
C     -2.312304    0.775981   -0.246246
C     -3.454776    1.573437    0.396901
C     -3.466076    1.397574    1.926803
C     -4.844821    1.257355   -0.175779
C     -0.886700    1.253100    0.019046
H     -0.504877   -1.950169   -0.752782
H     -1.360334   -2.884210    1.399334
H      0.274919   -2.217624    1.598608
H     -1.134634   -1.317041    2.194125
H     -3.126460   -1.328238    0.066270
H     -3.436876    0.012191   -2.034073
H     -1.635831    0.088273   -2.275483
H     -3.254921    2.635414    0.185676
H     -4.222070    2.044080    2.387128
H     -3.702463    0.360930    2.196424
H     -2.501108    1.647752    2.381342
H     -5.609521    1.841483    0.348401
H     -5.103866    0.197925   -0.052020
H     -4.914225    1.502350   -1.240451
H     -0.516921    1.985072   -0.709165
H     -0.785684    1.718818    1.008907

