27
-292358.8806545181
O      1.211197   -0.000000    0.000000
C      0.000000    0.000000    0.000000
C     -0.880354   -1.266371    0.018617
C     -0.767709   -1.962374    1.387304
C     -2.276587   -0.755057   -0.293742
C     -2.458887    0.027460   -1.573340
C     -2.303571    0.772492   -0.266647
C     -3.501394    1.535540    0.293437
C     -3.509562    1.581719    1.830060
C     -3.601538    2.948311   -0.305661
C     -0.885808    1.255138    0.018617
H     -0.502316   -1.950984   -0.752308
H     -1.358842   -2.884867    1.400167
H      0.275464   -2.215718    1.600019
H     -1.135471   -1.316396    2.193542
H     -3.127890   -1.315881    0.086808
H     -3.445624    0.018640   -2.030215
H     -1.642798    0.043607   -2.295350
H     -4.397456    0.978640   -0.019505
H     -2.668683    2.166111    2.223297
H     -4.429187    2.051179    2.198095
H     -3.449803    0.574922    2.259431
H     -4.508796    3.457889    0.039498
H     -3.627483    2.913535   -1.400736
H     -2.743962    3.565728   -0.010470
H     -0.500324    1.992937   -0.694495
H     -0.800207    1.707073    1.016706

