%nprocshared=8
%mem=8GB
%chk= 2.chk
# freq b3lyp/6-31g(d)

good luck!

0 1
O      1.217897    0.000000   -0.000000
C      0.000000    0.000000    0.000000
C     -0.834776   -1.284860   -0.030337
C      0.018894   -2.559706   -0.001325
C      0.676011   -2.850977    1.354827
C      1.502665   -4.143190    1.356494
C      2.154568   -4.438771    2.711084
C     -1.778730   -1.222769   -1.261155
C     -2.634566    0.051523   -1.283289
C     -1.763258    1.314083   -1.241245
C     -0.805490    1.293282   -0.030337
H     -1.478962   -1.259392    0.864909
H      0.796734   -2.480513   -0.771407
H     -0.618730   -3.410484   -0.281544
H      1.320334   -2.008003    1.630732
H     -0.103274   -2.921026    2.129599
H      0.860793   -4.987921    1.066662
H      2.281166   -4.072927    0.583911
H      1.399354   -4.549492    3.499318
H      2.741366   -5.364088    2.680434
H      2.827931   -3.626506    3.010879
H     -1.171614   -1.274545   -2.176737
H     -2.419158   -2.113557   -1.261881
H     -3.314747    0.047932   -0.418857
H     -3.268379    0.061392   -2.178822
H     -2.386486    2.215729   -1.205432
H     -1.169852    1.378781   -2.163740
H     -1.396527    1.356062    0.895578
H     -0.109012    2.136608   -0.045860


