%nprocshared=8
%mem=8GB
%chk= 0.chk
# freq b3lyp/6-31g(d)

good luck!

0 1
O      1.216339   -0.000000    0.000000
C      0.000000    0.000000    0.000000
C     -0.848777   -1.268165   -0.000930
C     -1.747063   -1.254741    1.260818
C     -1.740755   -1.257800   -1.267906
C     -2.632527   -0.000001   -1.263551
C     -1.740756    1.257799   -1.267906
C     -0.848778    1.268165   -0.000930
C     -1.747063    1.254741    1.260818
C     -2.654041   -0.000001    1.281118
C     -3.540228   -0.000001    2.532007
C     -3.519431   -0.000001   -0.002292
H     -0.178747   -2.133971    0.003802
H     -2.364876   -2.163757    1.275328
H     -1.124177   -1.280149    2.165477
H     -2.358918   -2.165786   -1.284282
H     -1.115026   -1.279848   -2.169771
H     -3.267740   -0.000001   -2.158836
H     -2.358919    2.165785   -1.284282
H     -1.115027    1.279847   -2.169771
H     -0.178748    2.133971    0.003802
H     -2.364877    2.163756    1.275328
H     -1.124178    1.280148    2.165477
H     -4.186576    0.886093    2.558360
H     -4.186575   -0.886094    2.558360
H     -2.934461   -0.000000    3.446807
H     -4.175618    0.882085   -0.004325
H     -4.175617   -0.882087   -0.004325


