%nprocshared=8
%mem=4GB
%chk= 0.chk
# freq b3lyp/6-31g(d)

good luck!

0 1
O      1.217389    0.000000    0.000000
C      0.000000    0.000000    0.000000
C     -0.825396   -1.287925   -0.006007
C      0.053671   -2.535712   -0.101943
C     -1.885314   -1.225034   -1.133752
C     -2.780563    0.038514   -1.123843
C     -3.719081    0.043357    0.100289
C     -3.646325    0.045537   -2.397585
C     -1.869260    1.289858   -1.127846
C     -0.810938    1.289084   -0.006007
H     -1.361279   -1.305580    0.956741
H      0.610023   -2.549259   -1.045379
H      0.787455   -2.562819    0.708343
H     -0.558591   -3.443037   -0.050540
H     -2.513937   -2.124335   -1.080799
H     -1.359437   -1.275239   -2.098759
H     -3.179144    0.047433    1.053066
H     -4.366666   -0.841833    0.094500
H     -4.366510    0.928595    0.086594
H     -3.024552    0.040964   -3.301058
H     -4.285151    0.936483   -2.434809
H     -4.299670   -0.834689   -2.435880
H     -2.480419    2.199169   -1.056809
H     -1.349874    1.341388   -2.095037
H     -1.304272    1.385913    0.971927
H     -0.119457    2.130727   -0.107740


