38
-401108.3605105543
O      1.219086   -0.000000   -0.000000
C      0.000000    0.000000    0.000000
C     -0.809711   -1.289390    0.013077
C     -1.880546   -1.275332    1.125803
C     -2.716088    0.015629    1.094507
C     -1.841965    1.307678    1.185877
C     -2.769210    2.536695    1.028579
C     -3.956180    2.545539    2.007963
C     -4.769508    1.244443    1.937703
C     -3.874479    0.007150    2.107975
C     -1.048937    1.393526    2.527964
N     -0.204828    2.596649    2.634814
C     -0.596617    3.482412    3.723072
C      1.224273    2.298752    2.692046
C     -0.823911    1.279707    0.013077
H     -1.314972   -1.375594   -0.960984
H     -0.123644   -2.135936    0.109399
H     -1.397091   -1.398622    2.103330
H     -2.541535   -2.142715    1.002999
H     -3.185886    0.055757    0.096226
H     -3.165103    2.540786    0.002127
H     -2.171430    3.448983    1.136704
H     -4.601888    3.405630    1.789011
H     -3.598636    2.690152    3.036319
H     -5.272566    1.186200    0.961106
H     -5.562715    1.248835    2.696089
H     -3.485501   -0.036039    3.134854
H     -4.468158   -0.906508    1.969709
H     -1.749626    1.360888    3.370970
H     -0.418812    0.501070    2.636157
H     -1.647300    3.770570    3.620880
H     -0.460109    3.033139    4.727125
H      0.004732    4.397703    3.682973
H      1.791097    3.236069    2.653592
H      1.518497    1.764163    3.616961
H      1.520594    1.689037    1.834676
H     -1.381891    1.330102   -0.934290
H     -0.155405    2.142917    0.058039

