%nprocshared=8
%mem=4GB
%chk= 1.chk
# freq b3lyp/6-31g(d)

good luck!

0 1
O      1.211350   -0.000000   -0.000000
C      0.000000    0.000000    0.000000
C     -0.897307   -1.243398    0.002407
C     -2.305492   -0.730550   -0.362556
C     -2.537057   -0.755563   -1.880832
C     -2.319917    0.701769    0.262725
C     -3.449310    1.623442   -0.197462
C     -0.900045    1.239927    0.002407
H     -0.498782   -2.018135   -0.660617
H     -0.878440   -1.653904    1.022676
H     -3.081856   -1.344301    0.110646
H     -2.457338   -1.780704   -2.260331
H     -1.798071   -0.150471   -2.421252
H     -3.531374   -0.381152   -2.145696
H     -2.422506    0.561254    1.349313
H     -3.424726    2.572779    0.350070
H     -3.371069    1.857571   -1.265373
H     -4.431445    1.166458   -0.024522
H     -0.548596    1.977039    0.731701
H     -0.825291    1.715345   -0.986672


