%nprocshared=10
%mem=12GB
%chk= 1.chk
# freq b3lyp/6-31g(d)

good luck!

0 1
O      1.216830    0.000000    0.000000
C      0.000000    0.000000    0.000000
C     -0.811394   -1.288215    0.002410
C     -1.859477   -1.284287    1.129504
C     -2.742040   -0.014264    1.085980
C     -3.714684   -0.077204    2.253382
O     -3.435702    0.181222    3.405547
O     -4.935450   -0.506241    1.860974
C     -5.904708   -0.650498    2.913849
C     -1.881769    1.267174    1.145318
C     -2.727666    2.553683    1.096909
C     -1.858159    3.819066    1.139574
C     -0.807334    3.820994    0.020571
C      0.045713    2.545978    0.051994
C     -0.826488    1.284371    0.002410
H     -1.322664   -1.373217   -0.968260
H     -0.125122   -2.134984    0.094581
H     -1.355138   -1.325327    2.103085
H     -2.487600   -2.179968    1.056669
H     -3.326168   -0.021001    0.156798
H     -6.813699   -1.005611    2.427533
H     -6.081108    0.309334    3.406476
H     -5.558542   -1.372103    3.658616
H     -1.345598    1.252386    2.105410
H     -3.327264    2.552916    0.173339
H     -3.433606    2.560289    1.935892
H     -2.494246    4.710359    1.069278
H     -1.351333    3.873186    2.113839
H     -0.163206    4.705135    0.105251
H     -1.314441    3.897687   -0.953052
H      0.758577    2.530154   -0.779351
H      0.649893    2.522014    0.968559
H     -1.391405    1.281275   -0.947519


