38
-401110.7287120373
O      1.217242    0.000000   -0.000000
C      0.000000    0.000000    0.000000
C     -0.845225   -1.293012    0.005764
N     -0.127120   -2.555447   -0.077721
C      0.853947   -2.690342   -1.150600
C      0.258156   -3.217894    1.178494
C      1.170297   -2.404760    2.125235
C      1.589372   -3.233645    3.350895
C      0.370292   -3.782055    4.107066
C     -0.549367   -4.581792    3.172270
C     -0.967487   -3.756594    1.943479
C     -1.959304   -1.202186   -1.075585
C     -2.784415    0.087782   -0.978370
C     -1.889648    1.328613   -1.077598
C     -0.794671    1.304599    0.005764
H     -1.368645   -1.277855    0.972585
H      1.834088   -2.246576   -0.928800
H      0.991985   -3.755503   -1.376368
H      0.477144   -2.213599   -2.060931
H      0.832883   -4.100304    0.860303
H      0.631263   -1.509220    2.467441
H      2.048591   -2.043720    1.580825
H      2.217872   -4.075005    3.021855
H      2.212284   -2.626572    4.020326
H      0.691863   -4.407288    4.950006
H     -0.194819   -2.942254    4.538770
H     -1.440072   -4.925805    3.713642
H     -0.022091   -5.486904    2.835790
H     -1.598930   -2.920961    2.280775
H     -1.578606   -4.357632    1.259647
H     -1.503038   -1.262227   -2.072795
H     -2.594741   -2.087579   -0.969402
H     -3.544119    0.103498   -1.769771
H     -3.329673    0.106396   -0.022863
H     -2.482346    2.246616   -0.984223
H     -1.416775    1.359983   -2.069102
H     -1.270471    1.399852    0.994319
H     -0.087059    2.132408   -0.100607

