28
-316274.42687343596
O      1.215336   -0.000000    0.000000
C      0.000000    0.000000    0.000000
C     -0.889896   -1.251563    0.042723
C     -2.216552   -0.772410    0.666381
C     -0.868684    1.222085    0.042723
C     -2.024620    1.184362   -0.962569
C     -2.267718    0.748750    0.447536
C     -3.126703    1.577154    1.390156
C     -2.484034    1.835470    2.767189
C     -1.397787    2.927354    2.785719
C     -0.092963    2.640567    2.021012
C     -0.236203    2.524319    0.491725
H     -1.022784   -1.629707   -0.979296
H     -0.390813   -2.042368    0.608629
H     -2.219792   -0.983733    1.742591
H     -3.095111   -1.269923    0.238014
H     -2.401025    2.159918   -1.261185
H     -2.011637    0.453277   -1.768401
H     -3.370537    2.541491    0.924561
H     -4.087010    1.058712    1.524195
H     -2.069968    0.897945    3.165571
H     -3.275307    2.134959    3.467536
H     -1.834454    3.862602    2.402262
H     -1.138807    3.126678    3.834617
H      0.611727    3.453664    2.241267
H      0.374358    1.724537    2.408318
H     -0.811411    3.378555    0.111340
H      0.757679    2.581447    0.031257

