%nprocshared=10
%mem=12GB
%chk= 0.chk
# freq b3lyp/6-31g(d)

good luck!

0 1
O      1.215609    0.000000   -0.000000
C      0.000000    0.000000    0.000000
C     -0.852228   -1.264160   -0.001045
C     -1.749513   -1.251723    1.260651
C     -1.741159   -1.253594   -1.269642
C     -2.625851    0.008758   -1.272056
C     -1.730630    1.261926   -1.274624
C     -0.850675    1.266075   -0.001045
C     -1.753936    1.256757    1.256613
C     -2.668310    0.005596    1.281094
C     -3.580783   -0.037096    2.512119
C     -3.571650    0.958637    3.500573
C     -4.412856    0.894280    4.609304
C     -5.297461   -0.182238    4.760084
C     -6.166528   -0.255044    5.897709
N     -6.872692   -0.314764    6.820440
C     -5.322010   -1.189710    3.781286
C     -4.476201   -1.109312    2.682624
C     -3.524641    0.014834   -0.019397
H     -0.187261   -2.133543    0.009026
H     -1.130609   -1.268361    2.166879
H     -2.353960   -2.166934    1.275076
H     -1.113182   -1.281294   -2.169310
H     -2.363405   -2.158763   -1.285501
H     -3.259464    0.009179   -2.168198
H     -1.097207    1.279451   -2.170787
H     -2.344054    2.172747   -1.297016
H     -0.183132    2.133226    0.015477
H     -2.361731    2.171315    1.259613
H     -1.125277    1.284132    2.155876
H     -2.901026    1.805835    3.418198
H     -4.386511    1.677252    5.360508
H     -6.003382   -2.027581    3.889599
H     -4.517639   -1.902634    1.942457
H     -4.172037    0.901816   -0.020409
H     -4.188204   -0.858430   -0.038948


