31
-327862.1513665166
O      1.217431   -0.000000   -0.000000
C      0.000000    0.000000    0.000000
C     -0.833037   -1.274859   -0.013021
C      0.019890   -2.531578   -0.179205
C     -1.913566   -1.135959   -1.108682
N     -2.740791    0.056208   -0.911126
C     -4.028759    0.020535   -1.641843
C     -3.903404   -0.094641   -3.174056
C     -4.954454   -1.065966   -1.074523
C     -1.932746    1.278091   -1.083711
C     -2.740569    2.574638   -0.960141
C     -0.814226    1.281648   -0.013021
H     -1.369171   -1.306784    0.947885
H      0.539286   -2.529710   -1.143677
H      0.785029   -2.586473    0.599710
H     -0.600893   -3.432925   -0.123417
H     -1.410802   -1.138578   -2.096006
H     -2.550192   -2.023706   -1.076890
H     -4.517307    0.973132   -1.420068
H     -4.890090   -0.013692   -3.644817
H     -3.474190   -1.058132   -3.472362
H     -3.270891    0.698007   -3.590056
H     -4.987311   -1.005392    0.017983
H     -5.970488   -0.926944   -1.460985
H     -4.640628   -2.077837   -1.354938
H     -1.436849    1.280690   -2.075562
H     -3.334069    2.575207   -0.038310
H     -2.053546    3.426685   -0.922113
H     -3.412711    2.738493   -1.807676
H     -1.291400    1.394487    0.971283
H     -0.132608    2.124121   -0.164355

