31
-327857.577983398
O      1.215718   -0.000000   -0.000000
C      0.000000    0.000000    0.000000
C     -0.827056   -1.271925   -0.037639
C     -2.077700   -1.180150    0.861231
C     -1.730489   -1.365799    2.344515
C     -2.794971    0.158009    0.598143
N     -1.917721    1.293579    0.898407
C     -2.600464    2.610371    1.100737
C     -3.401323    3.068117   -0.139741
C     -3.546594    2.496373    2.314573
C     -1.545540    3.681024    1.448948
C     -0.789203    1.310475   -0.037639
H     -0.185476   -2.122429    0.212891
H     -1.148171   -1.399229   -1.083806
H     -2.768971   -1.980795    0.564091
H     -2.636556   -1.350484    2.962243
H     -1.226141   -2.324514    2.511524
H     -1.073413   -0.564837    2.697705
H     -3.681455    0.207842    1.232809
H     -3.148622    0.173720   -0.452908
H     -2.757476    3.162259   -1.021892
H     -4.207658    2.366768   -0.381530
H     -3.858819    4.048042    0.038631
H     -3.008063    2.096770    3.180253
H     -3.935563    3.486436    2.575210
H     -4.412913    1.856362    2.121546
H     -0.880725    3.323421    2.242836
H     -2.046802    4.587295    1.804040
H     -0.935018    3.970266    0.588127
H     -1.108454    1.464545   -1.092451
H     -0.083518    2.101221    0.211885

