31
-327858.3679434001
O      1.215715    0.000000    0.000000
C      0.000000    0.000000    0.000000
C     -0.823323   -1.273665    0.032500
C     -2.077742   -1.183952   -0.855666
C     -3.010872   -2.378067   -0.629491
C     -2.794804    0.152553   -0.608838
N     -1.912095    1.282472   -0.912472
C     -2.592572    2.597265   -1.135283
C     -3.408395    3.067658    0.090510
C     -3.523426    2.469734   -2.359925
C     -1.533769    3.664656   -1.481908
C     -0.791521    1.308509    0.032500
H     -1.143518   -1.415225    1.078610
H     -0.180773   -2.120802   -0.227551
H     -1.753508   -1.179986   -1.905023
H     -3.386848   -2.397791    0.401607
H     -2.489132   -3.324748   -0.810411
H     -3.876439   -2.339557   -1.301509
H     -3.674871    0.197268   -1.252945
H     -3.161300    0.175425    0.438782
H     -4.217679    2.368729    0.329399
H     -3.863476    4.045831   -0.103135
H     -2.775116    3.170203    0.979361
H     -2.973984    2.057691   -3.212878
H     -3.907016    3.456893   -2.638839
H     -4.393607    1.834006   -2.170025
H     -0.934086    3.963406   -0.616761
H     -0.859110    3.298890   -2.263588
H     -2.030941    4.566870   -1.852694
H     -1.117748    1.466779    1.084494
H     -0.086240    2.099551   -0.216529

