%nprocshared=8
%mem=4GB
%chk= 0.chk
# freq b3lyp/6-31g(d)

good luck!

0 1
O      1.214714    0.000000    0.000000
C      0.000000    0.000000    0.000000
C     -0.903964   -1.185755    0.010466
C     -2.153681   -1.004087   -0.861899
C     -2.211579    0.116280   -1.896370
C     -1.458887    1.397439   -1.432913
C     -0.921395    1.230927    0.010466
C     -2.065145    0.786979    0.947623
C     -2.232501   -0.693782    0.597674
H     -0.496999   -2.175990    0.184122
H     -2.607819   -1.942420   -1.174712
H     -1.793572   -0.248953   -2.841844
H     -3.265521    0.346375   -2.097379
H     -0.621476    1.613623   -2.105494
H     -2.122865    2.269271   -1.465368
H     -0.386955    2.125112    0.339117
H     -1.773268    0.897402    1.999121
H     -2.985808    1.364326    0.793236
H     -2.807459   -1.339156    1.256120


