16
-217582.87463130525
O      1.208858    0.000000   -0.000000
C      0.000000    0.000000    0.000000
C     -0.934888   -1.231012    0.002121
C     -2.337186   -0.558863   -0.082671
C     -2.391181    0.138503   -1.441638
C     -1.559802    1.188975   -1.395139
C     -0.940752    1.231852    0.002121
C     -2.116056    0.669666    0.840333
H     -0.791129   -1.781868    0.940382
H     -0.708114   -1.911026   -0.823521
H     -3.175896   -1.213856    0.162623
H     -2.927785   -0.234340   -2.307990
H     -1.261919    1.837307   -2.211850
H     -0.456392    2.158582    0.309367
H     -2.972790    1.349792    0.859873
H     -1.836167    0.396694    1.865525

