%nprocshared=8
%mem=8GB
%chk= 0.chk
# freq b3lyp/6-31g(d)

good luck!

0 1
O      1.207110   -0.000000   -0.000000
C      0.000000    0.000000    0.000000
C     -1.007618   -1.158645   -0.005307
C     -1.747583   -0.804833   -1.324610
C     -3.043717   -1.516851   -1.616386
C     -3.467941   -2.658537   -1.071520
C     -1.822788    0.797391   -1.292595
C     -3.205314    1.384396   -1.346028
C     -3.596270    2.308892   -2.225572
C     -1.007819    1.156214   -0.005307
C     -1.799244    0.790242    1.270212
C     -1.870265   -0.778686    1.226621
H     -0.564885   -2.155312    0.017266
H     -1.069061   -1.057270   -2.153597
H     -3.651442   -1.051354   -2.392943
H     -2.907881   -3.181155   -0.300193
H     -4.397549   -3.122651   -1.389815
H     -1.266835    1.183647   -2.154508
H     -3.926398    1.018501   -0.615784
H     -4.605057    2.712883   -2.221212
H     -2.920113    2.699911   -2.983621
H     -0.579730    2.159432   -0.016623
H     -2.786367    1.258381    1.302766
H     -1.251368    1.132658    2.154769
H     -2.896138   -1.140252    1.127490
H     -1.451867   -1.217533    2.138039


