%nprocshared=8
%mem=4GB
%chk= 0.chk
# freq b3lyp/6-31g(d)

good luck!

0 1
O      1.211666   -0.000000   -0.000000
C      0.000000    0.000000    0.000000
C     -0.932644   -1.210123   -0.008310
C     -2.145488   -0.655139    0.771592
C     -1.536582   -1.313098   -1.448109
C     -0.524541   -1.479879   -2.583161
C     -2.442384   -0.032114   -1.549357
C     -3.883409   -0.343431   -1.964889
C     -2.318309    0.593073   -0.129950
C     -0.920515    1.235487   -0.008310
H     -0.455138   -2.126165    0.345216
H     -1.921362   -0.405439    1.815335
H     -3.005708   -1.332768    0.753548
H     -2.190226   -2.196636   -1.440514
H     -1.037191   -1.547944   -3.550223
H      0.175245   -0.638204   -2.633300
H      0.068607   -2.392763   -2.454933
H     -2.018208    0.659213   -2.290495
H     -4.387205   -0.980425   -1.227486
H     -3.909778   -0.870135   -2.926702
H     -4.473625    0.574486   -2.072154
H     -3.141814    1.263170    0.134053
H     -0.654184    1.924001   -0.817952
H     -0.798937    1.777332    0.939327


