%nprocshared=10
%mem=12GB
%chk= 1.chk
# freq b3lyp/6-31g(d)

good luck!

0 1
C     -5.129808   -8.283481   -3.264418
C     -5.657791   -7.187864   -2.320481
C     -6.823219   -7.758329   -1.490493
C     -4.604656   -6.521289   -1.389621
C     -3.482959   -7.436666   -0.808276
C     -2.287304   -6.493692   -0.466558
C     -2.832294   -5.078460   -0.738872
C     -1.861994   -3.903994   -0.923167
C     -0.871632   -3.785163    0.248243
C      0.023136   -2.546672    0.136823
C     -0.827278   -1.282613   -0.002361
C     -1.800566   -1.315166   -1.236065
C     -1.002317   -1.320941   -2.560790
C     -2.694668   -2.595735   -1.093738
C     -3.765837   -2.739620   -2.202650
C     -4.658761   -3.988468   -2.038792
C     -3.825921   -5.275566   -1.914986
C     -3.116253   -5.574626   -3.253426
C      0.000000    0.000000    0.000000
O      1.217918   -0.000000   -0.000000
C     -0.817779    1.283610   -0.002361
C     -1.867458    1.272554   -1.132047
C     -2.676060   -0.034755   -1.165735
H     -5.921548   -8.590877   -3.958318
H     -4.824757   -9.177413   -2.707370
H     -4.275372   -7.956663   -3.863113
H     -6.075948   -6.387695   -2.950113
H     -6.472140   -8.539371   -0.803632
H     -7.587851   -8.207108   -2.136096
H     -7.307076   -6.979426   -0.889421
H     -5.174923   -6.140484   -0.529038
H     -3.172323   -8.194604   -1.533402
H     -3.835962   -7.981056    0.074227
H     -1.947126   -6.613625    0.567038
H     -1.423847   -6.711069   -1.107808
H     -3.457743   -4.817356    0.132101
H     -1.273348   -4.074897   -1.835925
H     -0.253945   -4.690032    0.305348
H     -1.438828   -3.738477    1.191497
H      0.702353   -2.636434   -0.719202
H      0.668084   -2.455710    1.018067
H     -1.481159   -1.214189    0.884688
H     -0.248927   -0.526799   -2.584890
H     -1.666538   -1.167296   -3.418249
H     -0.470416   -2.262685   -2.720490
H     -3.243752   -2.467292   -0.144413
H     -3.281695   -2.767059   -3.186245
H     -4.411587   -1.854232   -2.210297
H     -5.358924   -4.045149   -2.883828
H     -5.272002   -3.874057   -1.132524
H     -2.512165   -6.486287   -3.209929
H     -2.450375   -4.763309   -3.560638
H     -3.853190   -5.703724   -4.054173
H     -0.138460    2.137609   -0.079785
H     -1.334358    1.351331    0.967090
H     -2.547619    2.124249   -1.010312
H     -1.361180    1.422359   -2.093409
H     -3.359089    0.000170   -2.021912
H     -3.307397   -0.090847   -0.265998


