34
-459767.30489848537
O      1.222345    0.000000    0.000000
C      0.000000    0.000000    0.000000
C     -0.793103   -1.294162   -0.011019
C     -2.148103   -1.145894    0.683559
C     -2.987866   -0.032113    0.034823
C     -4.380748    0.093055    0.707339
C     -5.203624   -1.179447    0.661625
C     -5.783713   -1.607980   -0.541730
C     -6.542188   -2.776973   -0.597663
C     -6.739181   -3.540611    0.555179
C     -6.172824   -3.124105    1.760157
C     -5.412535   -1.953736    1.810033
C     -2.202047    1.282178    0.004663
C     -2.840937    2.529997   -0.036116
C     -2.115158    3.720114   -0.081338
C     -0.718581    3.698086   -0.086820
C     -0.063951    2.474270   -0.052373
C     -0.786666    1.271965   -0.011019
H     -0.173458   -2.077713    0.436002
H     -0.948503   -1.575616   -1.064775
H     -1.995096   -0.909254    1.746489
H     -2.695211   -2.092752    0.645892
H     -3.163576   -0.330594   -1.012556
H     -4.244629    0.412117    1.748358
H     -4.952618    0.884321    0.210457
H     -5.645973   -1.014363   -1.443513
H     -6.985047   -3.088716   -1.540104
H     -7.332851   -4.449830    0.514285
H     -6.323806   -3.707747    2.664577
H     -4.977923   -1.634030    2.754573
H     -3.923861    2.587880   -0.028945
H     -2.646061    4.668330   -0.108902
H     -0.152918    4.625013   -0.120661
H      1.019441    2.409366   -0.060085

