34
-459768.259390924
O      1.222382    0.000000   -0.000000
C      0.000000    0.000000    0.000000
C     -0.787554   -1.302726    0.009885
C     -2.178572   -1.166963   -0.620264
C     -2.991151   -0.021211    0.009390
C     -3.490820   -0.337731    1.454256
C     -4.438844   -1.516291    1.532441
C     -5.757962   -1.400972    1.068657
C     -6.636289   -2.482587    1.122758
C     -6.210985   -3.705696    1.646616
C     -4.903805   -3.834624    2.116180
C     -4.028205   -2.748071    2.058518
C     -2.194367    1.273582   -0.002009
C     -2.858805    2.507421   -0.007567
C     -2.151480    3.707637    0.003748
C     -0.752100    3.699577    0.018932
C     -0.076876    2.486246    0.018481
C     -0.783889    1.272526    0.009885
H     -0.870160   -1.620068    1.060182
H     -0.181214   -2.064190   -0.490626
H     -2.728442   -2.110015   -0.532764
H     -2.065788   -0.964938   -1.693499
H     -3.889545    0.132841   -0.603249
H     -3.990417    0.561075    1.836744
H     -2.629207   -0.506785    2.110809
H     -6.102707   -0.449761    0.667684
H     -7.655123   -2.369546    0.761204
H     -6.895063   -4.548764    1.692137
H     -4.563638   -4.779695    2.531498
H     -3.013082   -2.856047    2.434724
H     -3.946543    2.524242   -0.029098
H     -2.690689    4.651434   -0.006430
H     -0.199496    4.634971    0.026872
H      1.007517    2.440546    0.023758

