34
-459767.82535166945
O      1.222559    0.000000    0.000000
C      0.000000    0.000000    0.000000
C     -0.780392   -1.309186    0.004110
C     -2.202584   -1.163380   -0.549388
C     -2.978215   -0.027500    0.145020
C     -3.335498   -0.400619    1.619024
C     -4.334642    0.524389    2.280981
C     -3.928671    1.485985    3.214963
C     -4.855105    2.342059    3.813579
C     -6.208166    2.250617    3.485536
C     -6.628221    1.294978    2.557398
C     -5.698870    0.440450    1.964476
C     -2.197153    1.272853    0.048760
C     -2.862722    2.505129    0.008304
C     -2.153764    3.703356   -0.061848
C     -0.755332    3.695495   -0.094800
C     -0.079209    2.482639   -0.065103
C     -0.785645    1.270948    0.004110
H     -0.806018   -1.666914    1.043734
H     -0.194410   -2.046026   -0.554705
H     -2.149442   -0.945896   -1.624214
H     -2.748127   -2.109406   -0.445173
H     -3.930027    0.109098   -0.384683
H     -3.743586   -1.420488    1.606908
H     -2.419240   -0.435114    2.219239
H     -2.875832    1.565078    3.474955
H     -4.517986    3.079315    4.537582
H     -6.931068    2.914382    3.952197
H     -7.681094    1.209839    2.300854
H     -6.036965   -0.308484    1.250600
H     -3.948637    2.522438    0.032829
H     -2.694137    4.645913   -0.095026
H     -0.203308    4.629731   -0.149935
H      1.004614    2.436185   -0.100215

