%nprocshared=10
%mem=12GB
%chk= 1.chk
# freq b3lyp/6-31g(d)

good luck!

0 1
C     -0.260786   -7.015262   -1.345718
C     -0.070303   -6.417290    0.060123
C      0.968014   -7.257928    0.826877
C      0.306397   -4.908941    0.116881
C      1.269439   -4.368875   -0.984848
C      1.000946   -2.835212   -1.082722
C      0.004456   -2.554863    0.058906
C     -0.837841   -1.276080    0.049480
C      0.000000    0.000000    0.000000
C     -0.798213    1.290951    0.049480
C     -1.678114    1.302277    1.318084
C     -2.390939    2.649875    1.521871
C     -3.138761    2.682941    2.862497
C     -4.092775    1.489152    3.002657
C     -3.382127    0.147735    2.749670
C     -2.640241    0.072246    1.385417
C     -3.681477    0.086368    0.242434
C     -1.753138   -1.221278    1.329348
C     -2.534192   -2.541930    1.529529
C     -1.649948   -3.803564    1.453011
C     -0.842353   -3.853670    0.146450
C     -1.796174   -4.025584   -1.056643
O      1.218754    0.000000    0.000000
H     -0.963550   -6.446696   -1.960662
H     -0.644895   -8.039484   -1.265788
H      0.690133   -7.068945   -1.888922
H     -1.026744   -6.527004    0.593986
H      0.701849   -8.321890    0.818242
H      1.963090   -7.163157    0.373312
H      1.047825   -6.940487    1.873243
H      0.822641   -4.772708    1.079002
H      2.313937   -4.581159   -0.732447
H      1.081484   -4.851997   -1.948444
H      1.905591   -2.235357   -0.976044
H      0.562950   -2.578229   -2.055814
H      0.598476   -2.516624    0.985174
H     -1.482751   -1.261158   -0.841411
H     -1.426978    1.378123   -0.847525
H     -0.096568    2.131055    0.052013
H     -0.989498    1.189048    2.171789
H     -1.647455    3.456958    1.486213
H     -3.088541    2.841547    0.694822
H     -2.403103    2.654589    3.679775
H     -3.688252    3.626609    2.971086
H     -4.930689    1.605845    2.302339
H     -4.537261    1.477701    4.006107
H     -2.649812   -0.021089    3.553759
H     -4.115523   -0.663720    2.823410
H     -4.400330   -0.731025    0.362236
H     -4.257287    1.015675    0.227771
H     -3.226880   -0.022536   -0.747110
H     -1.058155   -1.144579    2.182177
H     -3.338435   -2.618684    0.788692
H     -3.026299   -2.521719    2.508328
H     -2.284210   -4.693663    1.565948
H     -0.951949   -3.806849    2.303246
H     -1.257648   -4.090554   -2.006822
H     -2.507660   -3.199455   -1.147481
H     -2.386172   -4.942610   -0.946817


