40
-414957.0331491844
C     -3.353665   -1.722937   -0.631909
C     -2.150989   -0.761208   -0.735789
C     -0.891140   -1.246068    0.061678
C     -0.187618   -2.531814   -0.336785
C      0.000000    0.000000    0.000000
O      1.214681    0.000000    0.000000
C     -0.934239    1.233585    0.061678
C     -2.323073    0.534800    0.130742
C     -2.443185   -0.044758    1.562410
C     -1.412443   -1.214838    1.542138
C     -0.739785    2.354930   -1.008699
C     -1.541225    3.595995   -0.561115
C      0.747409    2.761055   -1.093108
C     -1.246202    1.918326   -2.404939
C     -0.918904    0.471330   -2.798053
C     -1.927421   -0.558047   -2.257982
H     -3.194509   -2.605367   -1.262581
H     -4.264491   -1.227472   -0.990720
H     -3.552273   -2.080503    0.380469
H      0.133856   -2.507840   -1.383855
H     -0.839494   -3.401962   -0.198335
H      0.711626   -2.674932    0.271462
H     -0.711599    1.715272    1.024879
H     -3.163754    1.172353   -0.158501
H     -2.209682    0.706804    2.323585
H     -3.455500   -0.403664    1.770497
H     -0.588162   -1.069668    2.248684
H     -1.874005   -2.176119    1.791142
H     -2.604625    3.370482   -0.420436
H     -1.468973    4.388527   -1.316179
H     -1.153593    3.999865    0.382197
H      1.145884    3.013719   -0.103876
H      1.376710    1.965185   -1.496647
H      0.851075    3.644889   -1.734821
H     -2.336382    2.051509   -2.459993
H     -0.824961    2.610685   -3.145775
H      0.108642    0.216197   -2.513042
H     -0.945932    0.386409   -3.892498
H     -2.905969   -0.304032   -2.691521
H     -1.671190   -1.540062   -2.679087

