21
-243034.94797465648
O      1.211992   -0.000000   -0.000000
C      0.000000    0.000000    0.000000
C     -0.938372   -1.204869   -0.025442
C     -1.475331   -1.282581   -1.482770
C     -2.233688   -0.000000   -1.878189
C     -1.475331    1.282581   -1.482770
C     -0.938372    1.204869   -0.025442
C     -2.034822    0.785277    0.982266
C     -2.034822   -0.785277    0.982266
H     -0.420007   -2.129675    0.241405
H     -0.625131   -1.442717   -2.159140
H     -2.132222   -2.155894   -1.586004
H     -3.218352   -0.000000   -1.393539
H     -2.429993   -0.000000   -2.957144
H     -2.132222    2.155893   -1.586004
H     -0.625132    1.442717   -2.159140
H     -0.420007    2.129675    0.241405
H     -3.013911    1.196228    0.713204
H     -1.792677    1.165977    1.979860
H     -3.013910   -1.196228    0.713204
H     -1.792677   -1.165978    1.979859

