41
-472837.0802958624
O      1.217107   -0.000000   -0.000000
C      0.000000    0.000000    0.000000
C     -0.807565   -1.340797    0.016433
N      0.029539   -2.510752    0.353746
C      0.633192   -2.515784    1.701836
C      0.014270   -3.554116    2.645116
C      0.980854   -2.967988   -0.675972
C      1.227911   -4.477166   -0.603336
C     -1.472189   -1.584402   -1.359858
C     -1.164033   -0.833843   -2.502669
C     -1.777259   -1.099317   -3.730303
C     -2.706255   -2.131479   -3.842432
C     -3.002279   -2.907401   -2.719414
C     -2.389194   -2.638745   -1.497172
C     -1.930378   -1.181290    1.096256
C     -2.782413    0.082908    0.931121
C     -1.911565    1.336463    1.058305
C     -0.779143    1.316641    0.016433
H      1.706321   -2.719582    1.601458
H      0.582029   -1.520765    2.159624
H     -1.048376   -3.356329    2.820637
H      0.526630   -3.545355    3.615984
H      0.096157   -4.561147    2.223553
H      1.935231   -2.425921   -0.601069
H      0.567532   -2.736640   -1.658829
H      1.910492   -4.785599   -1.404546
H      0.287709   -5.028134   -0.715462
H      1.683588   -4.775371    0.347763
H     -0.414899   -0.049239   -2.456386
H     -1.516730   -0.500171   -4.598807
H     -3.185176   -2.339067   -4.795483
H     -3.709243   -3.729548   -2.795750
H     -2.603835   -3.273890   -0.644016
H     -2.554485   -2.079126    1.084900
H     -1.465833   -1.144292    2.087460
H     -3.290511    0.075200   -0.041915
H     -3.567830    0.089156    1.697100
H     -2.509476    2.247275    0.934049
H     -1.479976    1.379074    2.068055
H     -0.055425    2.122584    0.173565
H     -1.221764    1.459010   -0.978416

