41
-472837.4237420963
O      1.215658    0.000000    0.000000
C      0.000000    0.000000    0.000000
C     -0.842644   -1.314966   -0.029359
N      0.001792   -2.472579    0.349141
C     -0.670841   -3.769031    0.186355
C      0.297475   -4.944284    0.032706
C      0.706467   -2.362635    1.643864
C      2.221873   -2.562111    1.537986
C     -1.214695   -1.462053   -1.527222
C     -2.530349   -1.530080   -2.002187
C     -2.793654   -1.674127   -3.367915
C     -1.745208   -1.750056   -4.282497
C     -0.427894   -1.689230   -3.820404
C     -0.166601   -1.548504   -2.459521
C     -2.078578   -1.162971    0.916950
C     -2.831730    0.177937    0.874128
C     -1.873682    1.358646    1.048367
C     -0.778519    1.309719   -0.029359
H     -1.289836   -3.719227   -0.712938
H     -1.354525   -3.982905    1.030674
H      0.879073   -5.124618    0.942327
H     -0.265045   -5.860377   -0.183968
H      0.996083   -4.761292   -0.790305
H      0.523777   -1.376603    2.082307
H      0.283499   -3.089245    2.357350
H      2.647141   -1.804660    0.877114
H      2.474046   -3.549379    1.140277
H      2.684136   -2.468824    2.529435
H     -3.367555   -1.490074   -1.314486
H     -3.823604   -1.730279   -3.710739
H     -1.950337   -1.859759   -5.344051
H      0.399677   -1.753231   -4.522138
H      0.856053   -1.514918   -2.098995
H     -1.708961   -1.304226    1.940501
H     -2.770119   -1.993479    0.734259
H     -3.367762    0.294817   -0.075442
H     -3.592971    0.183240    1.664929
H     -1.411144    1.322320    2.044901
H     -2.412916    2.311587    0.987593
H     -0.052233    2.120758    0.076085
H     -1.245850    1.406059   -1.019619

