%nprocshared=10
%mem=12GB
%chk= 0.chk
# freq b3lyp/6-31g(d)

good luck!

0 1
O      1.216162    0.000000   -0.000000
C      0.000000    0.000000    0.000000
C     -0.852254   -1.263678   -0.000735
C     -1.750170   -1.249181    1.260830
C     -1.741215   -1.253075   -1.269456
C     -2.625804    0.009396   -1.271991
C     -1.729755    1.262025   -1.274766
C     -0.850246    1.266071   -0.000735
C     -1.754124    1.256952    1.256682
C     -2.669744    0.006713    1.282950
C     -3.581568   -0.031922    2.516481
C     -4.477841   -1.101709    2.691463
C     -5.325773   -1.181352    3.793507
C     -5.279827   -0.169614    4.745476
F     -6.097692   -0.236729    5.817803
C     -4.413316    0.905245    4.616936
C     -3.571831    0.964570    3.503293
C     -3.523336    0.016384   -0.018476
H     -0.187045   -2.133093    0.008606
H     -2.354933   -2.164318    1.276168
H     -1.131685   -1.265771    2.167427
H     -2.364075   -2.157941   -1.284315
H     -1.113456   -1.281741   -2.169511
H     -3.258596    0.009945   -2.168971
H     -2.343053    2.173038   -1.296918
H     -1.096053    1.279606   -2.170978
H     -0.181962    2.132886    0.015088
H     -2.361505    2.171835    1.259612
H     -1.126037    1.284576    2.156364
H     -4.521878   -1.897490    1.953424
H     -6.014429   -2.010166    3.922079
H     -4.400331    1.679655    5.377069
H     -2.901007    1.811983    3.420016
H     -4.170719    0.903497   -0.019299
H     -4.187872   -0.856345   -0.037222


