31
-327856.90783157904
O      1.215468   -0.000000   -0.000000
C      0.000000    0.000000    0.000000
C     -0.817760   -1.280778    0.034638
C     -2.070035   -1.219307   -0.869756
C     -2.973699   -2.497897   -0.792990
C     -4.099493   -2.398023   -1.846117
C     -3.612169   -2.692794    0.597986
C     -2.128496   -3.745541   -1.130297
C     -2.810906    0.103146   -0.597523
N     -1.943601    1.249833   -0.869891
C     -2.675457    2.508015   -0.855049
C     -0.797949    1.298615    0.034638
H     -1.128966   -1.419066    1.082219
H     -0.148831   -2.106403   -0.218180
H     -1.715209   -1.154913   -1.908428
H     -3.691929   -2.213393   -2.847820
H     -4.666348   -3.335650   -1.885844
H     -4.813756   -1.599178   -1.620073
H     -4.274434   -1.862504    0.867241
H     -2.858587   -2.793048    1.387519
H     -4.215327   -3.608611    0.609035
H     -1.371500   -3.952837   -0.366925
H     -2.771054   -4.631141   -1.200050
H     -1.614452   -3.630561   -2.092753
H     -3.679140    0.192056   -1.256647
H     -3.191794    0.126161    0.444832
H     -2.001544    3.328044   -1.125696
H     -3.119364    2.742824    0.132928
H     -3.483904    2.473571   -1.593202
H     -0.130572    2.117422   -0.249109
H     -1.108304    1.472192    1.091046

