31
-327855.76309125463
O      1.215709   -0.000000    0.000000
C      0.000000    0.000000    0.000000
C     -0.822043   -1.277395   -0.051373
C     -2.123422   -1.230026    0.787662
C     -1.928427   -1.608395    2.300267
C     -0.792320   -0.820499    2.984523
C     -1.608422   -3.117828    2.386558
C     -3.238176   -1.364027    3.078684
C     -2.824475    0.112681    0.496862
N     -1.982964    1.270671    0.794432
C     -2.720706    2.522804    0.705658
C     -0.791593    1.304264   -0.051373
H     -1.106055   -1.399999   -1.108850
H     -0.170423   -2.118169    0.197123
H     -2.795402   -1.999823    0.381376
H      0.182789   -1.029777    2.530734
H     -0.969995    0.256861    2.928286
H     -0.724902   -1.106008    4.041849
H     -1.482883   -3.420726    3.432749
H     -0.682406   -3.377267    1.861999
H     -2.417984   -3.723451    1.959519
H     -3.453461   -0.296469    3.193378
H     -3.162984   -1.789970    4.086059
H     -4.097551   -1.836115    2.584581
H     -3.137602    0.115217   -0.570238
H     -3.741779    0.201093    1.084835
H     -3.115155    2.722061   -0.310585
H     -2.066535    3.356049    0.983935
H     -3.565440    2.504190    1.402409
H     -1.053078    1.481201   -1.120279
H     -0.130338    2.117765    0.260759

