%nprocshared=8
%mem=8GB
%chk= 0.chk
# freq b3lyp/6-31g(d)

good luck!

0 1
O      1.218142   -0.000000    0.000000
C      0.000000    0.000000    0.000000
C     -0.841047   -1.282816   -0.045838
C      0.018219   -2.560981    0.091675
C     -0.757471   -3.844241   -0.246196
C      0.611826   -2.668743    1.506830
C     -1.709726   -1.204738   -1.331854
C     -2.542936    0.083982   -1.402228
C     -1.682061    1.353912   -1.313863
C     -2.525683    2.632496   -1.349560
C     -0.797070    1.296100   -0.045838
H     -1.539862   -1.235848    0.806997
H      0.854091   -2.465516   -0.613859
H     -1.073633   -3.882205   -1.293659
H     -0.128466   -4.723149   -0.063328
H     -1.653803   -3.947299    0.380482
H      1.209148   -1.789028    1.757826
H     -0.183792   -2.776132    2.256938
H      1.260045   -3.549200    1.587401
H     -1.053777   -1.270556   -2.212258
H     -2.377900   -2.070704   -1.374214
H     -3.273800    0.089150   -0.578829
H     -3.125645    0.095679   -2.332653
H     -1.007347    1.364283   -2.183738
H     -3.217047    2.670365   -0.497852
H     -1.894202    3.527446   -1.307326
H     -3.122919    2.685527   -2.267596
H     -1.446847    1.349126    0.841119
H     -0.096698    2.136138   -0.006748


