22
-266943.062843463
O      1.211728   -0.000000   -0.000000
C      0.000000    0.000000    0.000000
C     -0.908705   -1.251680    0.028151
C     -2.316534   -0.606544   -0.020881
C     -2.109086    0.686232   -0.833395
C     -0.936585    1.204434    0.028151
C     -1.579400    1.182307    1.446116
C     -2.435479   -0.131501    1.458335
C     -1.836705   -1.279646    2.301977
C     -0.800799   -1.990794    1.381491
H     -0.668957   -1.891557   -0.828754
H     -3.116262   -1.273064   -0.355871
H     -1.833637    0.502604   -1.878743
H     -2.976989    1.355274   -0.813713
H     -0.456518    2.144213   -0.248881
H     -0.833665    1.213566    2.247798
H     -2.219690    2.064516    1.558461
H     -3.466263    0.087231    1.754428
H     -1.389111   -0.911520    3.231926
H     -2.629013   -1.979857    2.590934
H      0.222403   -1.946387    1.768832
H     -1.049473   -3.050326    1.258630

