22
-253852.45493510395
O      1.216624   -0.000000   -0.000000
C      0.000000    0.000000    0.000000
C     -0.814475   -1.293385    0.011616
C     -1.283964   -1.616500    1.445010
C     -2.000238   -1.187681   -0.969783
N     -2.799106    0.011791   -0.720670
C     -4.030278    0.012405   -1.498705
C     -2.006925    1.216507   -0.958564
C     -0.816421    1.285007    0.011616
H     -0.139879   -2.087675   -0.327248
H     -2.022905   -0.888092    1.791075
H     -1.752957   -2.607012    1.469166
H     -0.439764   -1.625623    2.142561
H     -1.617980   -1.205912   -2.011521
H     -2.646333   -2.066229   -0.852597
H     -3.856305    0.013734   -2.592597
H     -4.623053   -0.874602   -1.251110
H     -4.623399    0.898825   -1.249055
H     -1.634733    1.257094   -2.003311
H     -2.649606    2.092598   -0.815729
H     -1.203592    1.428073    1.029961
H     -0.154906    2.124767   -0.219968

