28
-410426.6377543927
O      1.215086   -0.000000    0.000000
C      0.000000    0.000000    0.000000
C     -0.906171   -1.263106    0.016750
C     -0.473441   -2.342104   -0.952883
C     -0.208162   -3.641733   -0.507949
C      0.173037   -4.643150   -1.403281
C      0.296958   -4.355891   -2.762347
C      0.039423   -3.060905   -3.218709
C     -0.341755   -2.064659   -2.321750
C     -2.352453   -0.719284   -0.183736
C     -2.227143    0.786312   -0.066406
C     -3.235060    1.751707   -0.056675
C     -2.875628    3.098548    0.031270
C     -1.528908    3.489792    0.107558
C     -0.521363    2.529931    0.099696
C     -0.889352    1.183857    0.016750
H     -0.815755   -1.662209    1.036090
H     -0.299009   -3.872479    0.551123
H      0.374520   -5.646154   -1.036249
H      0.595290   -5.132586   -3.461350
H      0.140308   -2.825026   -4.274890
H     -0.530748   -1.057977   -2.688474
H     -2.738333   -1.000307   -1.171434
H     -3.051972   -1.132737    0.552252
H     -4.282613    1.466728   -0.118290
H     -3.652324    3.859048    0.040022
H     -1.279006    4.544972    0.175098
H      0.529294    2.799590    0.159575

