%nprocshared=8
%mem=4GB
%chk= 0.chk
# freq b3lyp/6-31g(d)

good luck!

0 1
O      1.216421   -0.000000    0.000000
C      0.000000    0.000000    0.000000
C     -0.824248   -1.283099    0.001867
C     -1.760766   -1.247742   -1.230467
C     -1.839130   -1.302878    1.181298
C     -3.111651   -0.572423    0.650987
C     -2.772623   -0.166123   -0.806713
C     -2.087103    1.213316   -0.881006
C     -0.818541    1.291380    0.001867
H     -0.134880   -2.131442    0.014327
H     -2.246990   -2.223308   -1.358897
H     -1.239422   -1.009799   -2.165540
H     -2.067008   -2.343660    1.435324
H     -1.431257   -0.841457    2.087414
H     -3.382570    0.294771    1.263936
H     -3.973476   -1.248445    0.665398
H     -3.664251   -0.158010   -1.444155
H     -1.812571    1.412729   -1.925348
H     -2.788666    2.003360   -0.585068
H     -0.164044    2.118963   -0.286484
H     -1.112950    1.472567    1.046380


