25
-278525.40795254934
O      1.216305    0.000000   -0.000000
C      0.000000    0.000000    0.000000
C     -0.805848   -1.302817    0.029574
C      0.083222   -2.528611   -0.185946
C     -1.988667   -1.228512   -0.958729
C     -2.798997    0.049481   -0.750692
N     -1.918922    1.203175   -0.927296
C     -0.798438    1.326753    0.029574
C      0.094118    2.478925   -0.443879
C     -1.251027    1.588502    1.491331
H     -1.238911   -1.354855    1.043206
H      0.536373   -2.509799   -1.183071
H     -0.505983   -3.447918   -0.093833
H      0.897590   -2.559259    0.542463
H     -2.627795   -2.111371   -0.832350
H     -1.604602   -1.242781   -1.986741
H     -3.297404    0.009932    0.237086
H     -3.593504    0.119213   -1.502537
H     -2.457754    2.067649   -0.915952
H      0.978042    2.574460    0.190830
H     -0.463931    3.423048   -0.411021
H      0.422983    2.306652   -1.472060
H     -1.779482    2.548552    1.544848
H     -1.925946    0.812967    1.867292
H     -0.388706    1.641003    2.165483

