%nprocshared=10
%mem=12GB
%chk= 0.chk
# freq b3lyp/6-31g(d)

good luck!

0 1
C     -4.368473    0.372891    2.519089
C     -4.281244    0.049723    1.019898
C     -2.868571    0.263187    0.400295
C     -2.221877   -1.144190    0.557087
C     -0.788525   -1.341101   -0.025013
C     -0.765269   -1.854803   -1.489420
C     -0.016786   -2.366695    0.832646
C      0.000000    0.000000    0.000000
O      1.218025    0.000000    0.000000
C     -0.780333    1.313630   -0.025013
C     -1.913129    1.296576    1.023708
C     -1.576923    1.455324   -1.352849
C     -2.933483    0.748588   -1.079176
C     -3.347326   -2.101172    0.131912
C     -4.621458   -1.452877    0.732847
H     -4.152751    1.428018    2.722314
H     -3.669288   -0.232737    3.108886
H     -5.377123    0.162793    2.894574
H     -5.000030    0.700238    0.505890
H     -2.110397   -1.271538    1.645414
H      0.269611   -1.897807   -1.844004
H     -1.333103   -1.226773   -2.180394
H     -1.181197   -2.866926   -1.539406
H     -0.529024   -3.335737    0.817984
H      0.057352   -2.037517    1.875414
H      0.999263   -2.499906    0.453249
H     -0.053341    2.118230    0.113956
H     -1.571109    1.019114    2.027232
H     -2.368823    2.294005    1.091941
H     -1.730163    2.520670   -1.557653
H     -1.035726    1.046972   -2.212118
H     -3.138298   -0.064188   -1.782529
H     -3.758449    1.462315   -1.187603
H     -3.422691   -2.154096   -0.959904
H     -3.192930   -3.125671    0.488035
H     -4.902731   -1.955280    1.665930
H     -5.478058   -1.552553    0.057714


