29
-450903.31561653485
O      1.217000    0.000000   -0.000000
C      0.000000    0.000000    0.000000
C     -0.816833   -1.287068    0.007749
C     -1.882034   -1.291500    1.138971
Si    -2.904404   -2.912711    1.180884
C     -3.890081   -3.111674   -0.427433
C     -1.732156   -4.386790    1.392591
C     -4.099945   -2.857332    2.651737
C     -2.745399   -0.012667    1.059161
C     -1.890765    1.263362    1.116887
C     -0.818654    1.284020    0.007749
H     -0.120379   -2.126847    0.090009
H     -1.322615   -1.367258   -0.967473
H     -1.337238   -1.259547    2.097948
H     -4.477797   -4.037667   -0.407977
H     -4.591569   -2.283052   -0.581816
H     -3.235042   -3.160861   -1.305550
H     -2.296249   -5.324010    1.474175
H     -1.045071   -4.491398    0.544851
H     -1.124591   -4.289324    2.300591
H     -3.565785   -2.707625    3.598049
H     -4.835510   -2.050251    2.554665
H     -4.656810   -3.798693    2.735555
H     -3.477066    0.004674    1.876523
H     -3.325207   -0.015502    0.123555
H     -2.523989    2.155757    1.034331
H     -1.394927    1.320523    2.095808
H     -0.137219    2.133957    0.108398
H     -1.318450    1.368445   -0.969779

