29
-327099.162701229
O      1.213910    0.000000    0.000000
C      0.000000    0.000000    0.000000
C     -0.933453   -1.208786   -0.056286
C     -0.318288   -2.505751    0.439501
C     -2.218986   -0.631288    0.637562
C     -3.464073   -1.526358    0.513146
C     -2.024867   -0.338688    2.139897
C     -1.357588   -1.206533   -1.568293
C     -2.285697    0.037543   -1.707999
C     -2.275513    0.636569   -0.283485
C     -0.877243    1.268288   -0.056286
N     -0.383300    2.171273   -1.092987
H     -0.990860   -3.354866    0.273471
H      0.620995   -2.704073   -0.087547
H     -0.085659   -2.457459    1.509336
H     -3.332316   -2.452534    1.084975
H     -3.705828   -1.804335   -0.515062
H     -4.338529   -1.009591    0.927981
H     -2.036902   -1.273224    2.712639
H     -2.843374    0.285383    2.519470
H     -1.084302    0.167055    2.377399
H     -0.483069   -1.160242   -2.225278
H     -1.879020   -2.142665   -1.796123
H     -1.897724    0.761491   -2.427167
H     -3.296450   -0.242919   -2.018599
H     -3.106058    1.319223   -0.073062
H     -0.848772    1.726724    0.945845
H     -0.698700    3.122243   -0.913779
H      0.635361    2.181518   -1.038130

