21
-243032.1488105379
O      1.211167   -0.000000   -0.000000
C      0.000000    0.000000    0.000000
C     -0.933571   -1.209784   -0.013827
C     -2.136899   -0.661071    0.786435
C     -1.503847   -1.266862   -1.473675
C     -2.177393   -2.605193   -1.794241
C     -2.489133   -0.047598   -1.500387
C     -2.323305    0.593012   -0.101902
C     -0.922192    1.235438   -0.013827
H     -0.454859   -2.131606    0.321891
H     -3.004081   -1.329607    0.777389
H     -1.891486   -0.424005    1.828370
H     -0.688594   -1.119355   -2.192172
H     -1.455480   -3.429517   -1.767176
H     -2.622967   -2.581747   -2.796099
H     -2.978958   -2.835316   -1.082108
H     -2.264416    0.655120   -2.310414
H     -3.520925   -0.390355   -1.644649
H     -3.139729    1.262501    0.182278
H     -0.669072    1.910321   -0.839052
H     -0.785657    1.794088    0.921621

