%nprocshared=10
%mem=12GB
%chk= 1.chk
# freq b3lyp/6-31g(d)

good luck!

0 1
O      1.215859    0.000000    0.000000
C      0.000000    0.000000    0.000000
C     -0.849320   -1.268186   -0.006052
C     -1.754331   -1.260470    1.250498
C     -1.728678   -1.258159   -1.281548
C     -2.619842   -0.000000   -1.284841
C     -1.728678    1.258159   -1.281548
C     -0.849321    1.268186   -0.006052
C     -1.754331    1.260470    1.250498
C     -2.662706    0.000000    1.243861
C     -3.566301    0.000001    2.474319
O     -4.778762   -0.000095    2.456818
O     -2.847282   -0.000174    3.621903
C     -3.618801   -0.000334    4.834388
C     -3.525066   -0.000000   -0.037579
H     -0.180244   -2.134502    0.007753
H     -1.145082   -1.277255    2.160482
H     -2.373330   -2.167849    1.257313
H     -2.346525   -2.165958   -1.304166
H     -1.092957   -1.279964   -2.176187
H     -3.246780   -0.000000   -2.185480
H     -1.092957    1.279964   -2.176187
H     -2.346526    2.165957   -1.304167
H     -0.180244    2.134502    0.007752
H     -2.373330    2.167849    1.257313
H     -1.145082    1.277256    2.160482
H     -4.252428    0.889010    4.886353
H     -4.252483   -0.889655    4.886083
H     -2.889592   -0.000480    5.645025
H     -4.181943    0.877802   -0.038804
H     -4.181943   -0.877803   -0.038804


