%nprocshared=10
%mem=12GB
%chk= 0.chk
# freq b3lyp/6-31g(d)

good luck!

0 1
O      1.215908   -0.000000   -0.000000
C      0.000000    0.000000    0.000000
C     -0.847607   -1.269959   -0.004433
C     -1.755552   -1.266206    1.249319
C     -1.728012   -1.262084   -1.279537
C     -2.620336   -0.004643   -1.285171
C     -1.731373    1.254638   -1.280597
C     -0.852227    1.265690   -0.004433
C     -1.758953    1.257063    1.249954
C     -2.656509   -0.000403    1.249587
C     -3.551579    0.010960    2.485415
O     -3.590256    0.890383    3.319416
O     -4.327446   -1.097532    2.549915
C     -5.207977   -1.168640    3.683572
C     -3.526893   -0.007856   -0.038153
H     -0.177683   -2.135567    0.008009
H     -1.140858   -1.286075    2.158797
H     -2.376415   -2.168914    1.258524
H     -1.093132   -1.282928   -2.174713
H     -2.344728   -2.170695   -1.301405
H     -3.248361   -0.006568   -2.185343
H     -1.097213    1.276913   -2.176306
H     -2.350515    2.161540   -1.302537
H     -0.185339    2.133431    0.007345
H     -2.380405    2.159944    1.265615
H     -1.152969    1.281789    2.162785
H     -5.747840   -2.109941    3.576248
H     -4.636095   -1.156759    4.615151
H     -5.902326   -0.324260    3.684022
H     -4.176067   -0.890722   -0.039505
H     -4.180188    0.875162   -0.045470


