59
-649157.5603678968
C     -5.269074    8.103454   -3.451924
C     -5.190589    7.441921   -2.064091
C     -6.213377    8.113373   -1.128409
C     -5.360098    5.895706   -2.033039
C     -6.385941    5.268144   -3.026949
C     -5.937178    3.788125   -3.236074
C     -4.765905    3.605700   -2.251801
C     -3.787170    2.437461   -2.432866
C     -4.519066    1.085339   -2.496884
C     -3.556374   -0.107314   -2.533097
C     -2.568387   -0.056736   -1.359699
C     -1.740892    1.272122   -1.334306
C     -0.804485    1.397358   -2.558011
C     -2.760623    2.461058   -1.258711
C     -2.105271    3.852961   -1.087132
C     -3.125822    5.008231   -1.005220
C     -4.091818    5.002800   -2.202087
C     -3.327179    5.344053   -3.499499
C     -1.691473   -1.320678   -1.285190
C     -0.800351   -1.303390   -0.046127
F     -1.627079   -1.328416    1.092281
C      0.000000    0.000000    0.000000
O      1.215620   -0.000000   -0.000000
C     -0.852921    1.251462   -0.046127
H     -5.015354    9.167396   -3.372023
H     -6.282636    8.044374   -3.866093
H     -4.585675    7.655389   -4.178239
H     -4.192355    7.659385   -1.654562
H     -7.240849    7.908540   -1.456052
H     -6.113758    7.750870   -0.098549
H     -6.083017    9.202176   -1.114719
H     -5.722401    5.661792   -1.020728
H     -7.405995    5.331280   -2.633018
H     -6.391540    5.800542   -3.982536
H     -5.608885    3.622888   -4.270071
H     -6.749307    3.078335   -3.048418
H     -5.219699    3.464204   -1.255918
H     -3.249284    2.571428   -3.382303
H     -5.169078    0.991697   -1.613191
H     -5.181025    1.060466   -3.371324
H     -4.124784   -1.046016   -2.488451
H     -3.013058   -0.125973   -3.487980
H     -3.170114   -0.054145   -0.438732
H     -0.209844    2.314399   -2.499951
H     -1.352320    1.417839   -3.504064
H     -0.090347    0.569090   -2.610708
H     -3.351514    2.282242   -0.343716
H     -1.409958    4.045562   -1.912496
H     -1.498399    3.863870   -0.174584
H     -3.709055    4.907922   -0.077845
H     -2.585161    5.961883   -0.931901
H     -3.981333    5.356837   -4.376951
H     -2.862860    6.333340   -3.418573
H     -2.524402    4.631314   -3.708409
H     -2.327088   -2.214250   -1.243646
H     -1.059211   -1.423989   -2.176556
H     -0.122242   -2.160097    0.010371
H     -1.505393    1.258945    0.837422
H     -0.185861    2.115175    0.003673

