28
-363315.9453069636
O      1.208987   -0.000000    0.000000
C      0.000000    0.000000    0.000000
C     -0.999629   -1.150764    0.003480
C     -1.837425   -0.801040    1.265712
C     -1.837424    0.801041    1.265713
C     -0.999629    1.150764    0.003480
C     -1.854420    0.808981   -1.244964
C     -3.212029    1.451876   -1.192579
C     -3.806634    1.783627   -0.044475
C     -3.176047    1.561587    1.304441
C     -1.854419   -0.808981   -1.244965
C     -3.212028   -1.451878   -1.192581
C     -3.806633   -1.783628   -0.044477
C     -3.176049   -1.561585    1.304439
H     -0.573171   -2.155380   -0.002076
H     -1.268077   -1.109062    2.149915
H     -1.268075    1.109061    2.149916
H     -0.573171    2.155380   -0.002077
H     -1.329332    1.146066   -2.145938
H     -3.721161    1.626941   -2.138955
H     -4.790497    2.250697   -0.055484
H     -3.887916    1.055078    1.970280
H     -3.005311    2.541743    1.776285
H     -1.329330   -1.146065   -2.145938
H     -3.721158   -1.626946   -2.138958
H     -4.790496   -2.250699   -0.055486
H     -3.005315   -2.541740    1.776286
H     -3.887919   -1.055074    1.970276

