22
-253854.0890069531
O      1.216717   -0.000000   -0.000000
C      0.000000    0.000000    0.000000
C     -0.831133   -1.282391   -0.003825
C      0.027739   -2.535235   -0.170290
C     -1.937023   -1.175335   -1.077161
N     -2.742012    0.032401   -0.909437
C     -3.894241    0.040614   -1.800734
C     -1.925948    1.233453   -1.069404
C     -0.818630    1.282554   -0.003825
H     -1.347661   -1.309690    0.968340
H     -0.588489   -3.439080   -0.106354
H      0.539858   -2.534882   -1.138525
H      0.798094   -2.583018    0.603742
H     -1.469498   -1.219283   -2.083590
H     -2.597553   -2.046607   -0.996802
H     -4.503933    0.929394   -1.605429
H     -4.512282   -0.843734   -1.612189
H     -3.618364    0.043544   -2.873433
H     -2.573106    2.112308   -0.969865
H     -1.467238    1.283613   -2.078630
H     -1.289240    1.389505    0.983198
H     -0.147694    2.131777   -0.161694

