29
-374172.6142862924
O      1.217995   -0.000000    0.000000
C      0.000000    0.000000    0.000000
C     -0.800668   -1.335135    0.038680
N      0.070131   -2.502156    0.234970
C     -1.533409   -1.521928   -1.301077
C     -2.805704   -2.100401   -1.392587
C     -3.407598   -2.316727   -2.633511
C     -2.746778   -1.962555   -3.809977
C     -1.475036   -1.393611   -3.735561
C     -0.876770   -1.178003   -2.493768
C     -1.740590   -1.239968    1.272752
C     -2.612931    0.022646    1.307847
C     -1.754984    1.293907    1.262457
C     -0.813949    1.284211    0.038680
H      0.772557   -2.258596    0.935366
H      0.603421   -2.662131   -0.619042
H     -3.336776   -2.395707   -0.494044
H     -4.395936   -2.766795   -2.677958
H     -3.217316   -2.130216   -4.774982
H     -0.945412   -1.116147   -4.643124
H      0.117770   -0.739747   -2.452883
H     -2.341533   -2.152754    1.331138
H     -1.096844   -1.253878    2.164367
H     -3.226886    0.017218    2.217113
H     -3.308652    0.020366    0.458748
H     -1.151841    1.362749    2.178361
H     -2.386645    2.189699    1.233789
H     -1.417475    1.342699   -0.877041
H     -0.121931    2.131577    0.047679

