%nprocshared=10
%mem=12GB
%chk= 1.chk
# freq b3lyp/6-31g(d)

good luck!

0 1
C     -6.551143    8.382614   -1.285636
C     -5.252683    7.650321   -1.675013
C     -4.065117    8.330160   -0.974015
C     -5.375168    6.136057   -1.379094
C     -6.585998    5.482374   -2.125996
C     -6.207686    4.001601   -2.404620
C     -4.906178    3.803075   -1.612716
C     -4.023711    2.583477   -1.915502
C     -4.819899    1.269877   -1.823472
C     -3.932069    0.030990   -1.985053
C     -2.758985    0.045188   -0.994273
C     -1.882201    1.333794   -1.128814
C     -1.139886    1.388566   -2.483787
C     -2.820050    2.574519   -0.928613
C     -2.087569    3.935035   -0.921120
C     -3.022713    5.142185   -0.696656
C     -4.181703    5.177025   -1.713103
C     -3.647400    5.465567   -3.133811
C     -1.933899   -1.250922   -1.059706
C     -0.817170   -1.282949    0.002073
C      0.000000    0.000000    0.000000
O      1.217257    0.000000   -0.000000
C     -0.812266    1.289483    0.002073
H     -6.747853    8.282020   -0.209838
H     -6.473186    9.453488   -1.507699
H     -7.423603    7.995891   -1.821507
H     -5.119975    7.774301   -2.760150
H     -4.091087    9.413676   -1.142040
H     -4.097738    8.164201    0.110549
H     -3.100056    7.967182   -1.338267
H     -5.553188    6.038751   -0.295852
H     -6.789279    6.015092   -3.062979
H     -7.499365    5.556273   -1.527232
H     -6.995171    3.307026   -2.094707
H     -6.042168    3.831355   -3.475988
H     -5.201162    3.707451   -0.553125
H     -3.642468    2.671418   -2.943317
H     -5.320456    1.226581   -0.843536
H     -5.616682    1.260862   -2.577398
H     -3.554031   -0.028841   -3.015029
H     -4.528297   -0.878017   -1.827898
H     -3.200471    0.088209    0.016492
H     -0.506491    2.279133   -2.543914
H     -0.476938    0.527159   -2.615939
H     -1.823414    1.409917   -3.337495
H     -3.259270    2.451634    0.077077
H     -1.546247    4.073745   -1.864623
H     -1.324772    3.941816   -0.134072
H     -2.422725    6.057961   -0.733300
H     -3.444505    5.087896    0.317973
H     -3.119420    6.425429   -3.158252
H     -4.452310    5.519182   -3.874365
H     -2.942857    4.703242   -3.478240
H     -1.496086   -1.371992   -2.058691
H     -2.598844   -2.111591   -0.913868
H     -1.277658   -1.375903    0.997959
H     -0.140876   -2.132577   -0.130207
H     -1.322289    1.364749    0.975431
H     -0.106048    2.120628   -0.069142


