21
-276996.0695548857
O      1.215720   -0.000000    0.000000
C      0.000000    0.000000    0.000000
C     -0.841294   -1.289611   -0.009572
C     -1.863528   -1.188037   -1.167475
N     -2.670264    0.000000   -0.801663
C     -1.863528    1.188037   -1.167475
C     -0.841294    1.289611   -0.009572
C     -1.864909    1.242985    1.147297
C     -2.685459   -0.000000    0.728162
C     -1.864909   -1.242985    1.147297
H     -0.189544   -2.166980   -0.023228
H     -1.426775   -1.062521   -2.161771
H     -2.491390   -2.087312   -1.190392
H     -2.491390    2.087312   -1.190392
H     -1.426775    1.062521   -2.161771
H     -0.189544    2.166980   -0.023227
H     -1.422293    1.128406    2.141536
H     -2.462882    2.161861    1.148756
H     -3.710749    0.000000    1.106016
H     -1.422293   -1.128406    2.141536
H     -2.462882   -2.161861    1.148756

