23
-243798.26445608804
O      1.216700   -0.000000    0.000000
C      0.000000    0.000000    0.000000
C     -0.822651   -1.282339   -0.002129
C     -1.888030   -1.293199    1.123139
C     -1.222559   -1.482750    2.496812
C     -2.776477   -0.024388    1.011392
C     -3.916335    0.006728    2.038139
C     -1.930923    1.261916    1.068611
C     -0.820539    1.283408   -0.002129
H     -0.141114   -2.135062    0.076214
H     -1.332022   -1.348157   -0.975677
H     -2.538268   -2.162798    0.951610
H     -0.528992   -0.668892    2.738574
H     -0.642972   -2.412699    2.510403
H     -1.962672   -1.543523    3.301221
H     -3.239560   -0.063307    0.011932
H     -4.502770   -0.919620    2.010437
H     -4.599131    0.839739    1.834034
H     -3.540883    0.134661    3.059849
H     -1.478522    1.362613    2.064173
H     -2.579072    2.137757    0.939093
H     -1.286096    1.373141   -0.995944
H     -0.143533    2.133546    0.123322

