31
-327858.55579720397
O      1.217334    0.000000   -0.000000
C      0.000000    0.000000    0.000000
C     -0.818451   -1.287229   -0.007675
C     -1.354478   -1.575198   -1.424886
C     -1.963756   -1.216277    1.039528
C     -1.412036   -1.365947    2.473869
N     -2.780596   -0.007562    0.794856
C     -4.094752    0.051415    1.479404
C     -4.811397   -1.306447    1.509468
C     -5.015599    1.065657    0.777319
C     -1.995182    1.216301    0.982476
C     -0.819196    1.279038   -0.007675
H     -0.130643   -2.091922    0.276529
H     -1.804631   -2.574338   -1.457695
H     -0.547807   -1.546239   -2.165416
H     -2.123882   -0.851252   -1.707300
H     -2.607135   -2.077232    0.841241
H     -0.954488   -2.354087    2.597414
H     -2.207488   -1.270253    3.221276
H     -0.642048   -0.622437    2.707472
H     -3.963434    0.380320    2.528986
H     -5.818235   -1.171843    1.917980
H     -4.304908   -2.046329    2.135784
H     -4.911722   -1.716999    0.497627
H     -5.166027    0.772806   -0.267863
H     -4.622431    2.085978    0.789797
H     -5.991292    1.092189    1.274999
H     -2.635661    2.083268    0.811029
H     -1.613519    1.315370    2.015474
H     -0.159313    2.125007    0.206746
H     -1.223928    1.412334   -1.020471

