31
-327859.16599540465
O      1.217317   -0.000000   -0.000000
C      0.000000    0.000000    0.000000
C     -0.814352   -1.292775   -0.007376
C     -1.376493   -1.568888   -1.416147
C     -1.942725   -1.228482    1.062322
C     -1.361844   -1.432308    2.478511
N     -2.728725   -0.004595    0.852629
C     -4.113272    0.005194    1.360940
C     -5.041133    0.705450    0.354826
C     -4.302919    0.598377    2.772607
C     -1.969356    1.229353    1.012041
C     -0.815046    1.284073   -0.007376
H     -0.116436   -2.095830    0.254849
H     -0.586619   -1.519936   -2.173674
H     -1.815262   -2.572953   -1.453104
H     -2.159663   -0.849847   -1.672823
H     -2.623133   -2.066592    0.861698
H     -2.152034   -1.455892    3.235077
H     -0.823349   -2.385663    2.530511
H     -0.651916   -0.643619    2.753081
H     -4.416116   -1.048890    1.401739
H     -4.793065    1.768930    0.252187
H     -4.954796    0.240979   -0.632231
H     -6.085799    0.643961    0.681660
H     -3.660613    0.112804    3.513187
H     -5.343012    0.473604    3.096199
H     -4.082709    1.672403    2.788388
H     -1.556686    1.360158    2.028821
H     -2.636939    2.079353    0.839284
H     -1.243285    1.406667   -1.011588
H     -0.145831    2.128275    0.183921

