27
-292359.4738157127
O      1.211280   -0.000000   -0.000000
C      0.000000    0.000000    0.000000
C     -0.882371   -1.264024    0.002232
C     -0.284706   -2.401395   -0.830970
C     -2.255044   -0.752751   -0.403971
C     -2.356469    0.037406   -1.689432
C     -2.285508    0.771835   -0.368511
C     -3.514328    1.529479    0.127308
C     -3.576223    2.951079   -0.455614
C     -3.614519    1.552368    1.661324
C     -0.886186    1.253742    0.002232
H     -0.925860   -1.589462    1.055224
H      0.746328   -2.594318   -0.519125
H     -0.273579   -2.142993   -1.895554
H     -0.866142   -3.321984   -0.712834
H     -3.130067   -1.315055   -0.085465
H     -1.498400    0.068282   -2.360086
H     -3.312768    0.027275   -2.206744
H     -4.390305    0.978845   -0.247502
H     -2.737276    3.562180   -0.099931
H     -3.535964    2.932762   -1.550650
H     -4.501969    3.457474   -0.158224
H     -4.551387    2.023147    1.981034
H     -2.794620    2.124098    2.113163
H     -3.587176    0.538798    2.077811
H     -0.466252    2.004182   -0.677218
H     -0.855241    1.687310    1.011656

