20
-219127.0545350677
O      1.212815    0.000000   -0.000000
C      0.000000    0.000000    0.000000
C     -0.890763   -1.253545   -0.005443
C     -0.293783   -2.433730   -0.787543
C     -0.131080   -2.199070   -2.294056
C     -2.277238   -0.714844   -0.408550
C     -2.321558    0.705568    0.200083
C     -0.895278    1.244372   -0.005443
H     -0.948005   -1.551880    1.056078
H      0.690300   -2.647611   -0.353818
H     -0.914474   -3.323107   -0.616991
H      0.505646   -1.329539   -2.491672
H     -1.092866   -2.039078   -2.794687
H      0.341543   -3.067365   -2.766278
H     -2.356683   -0.649571   -1.501171
H     -3.097497   -1.351086   -0.060505
H     -3.089631    1.337451   -0.256315
H     -2.547376    0.642349    1.272313
H     -0.558666    1.976328    0.735344
H     -0.787175    1.717696   -0.991990

