37
-447543.1453920283
O      1.217008   -0.000000   -0.000000
C      0.000000    0.000000    0.000000
C     -0.854029   -1.253488    0.000961
C     -1.662314   -1.243484   -1.319833
C     -2.446503    0.054319   -1.604303
C     -1.643802    1.348925   -1.336533
N     -2.515210    2.544411   -1.357698
C     -1.749447    3.797818   -1.283631
C     -2.687112    5.002247   -1.245179
O     -3.540719    5.041979   -2.377780
C     -4.295376    3.843632   -2.456268
C     -3.398928    2.609138   -2.530865
C     -0.838284    1.270795    0.000961
C     -1.689607    1.294768    1.300417
C     -2.503686    0.011904    1.559362
C     -1.697498   -1.276122    1.302839
H     -0.186245   -2.121804   -0.002021
H     -0.950294   -1.412907   -2.138781
H     -2.355486   -2.094521   -1.335386
H     -3.369237    0.080402   -1.017809
H     -2.753139    0.026753   -2.655408
H     -0.882365    1.432040   -2.140132
H     -1.143375    3.811025   -0.373998
H     -1.062096    3.900475   -2.146174
H     -3.286780    4.969628   -0.319962
H     -2.110146    5.931987   -1.255309
H     -4.961182    3.756500   -1.581182
H     -4.910342    3.919593   -3.358317
H     -4.042897    1.726882   -2.560827
H     -2.820981    2.639818   -3.475852
H     -0.125628    2.099212    0.033134
H     -0.993797    1.448827    2.136479
H     -2.358789    2.161340    1.275773
H     -3.410776    0.016638    0.948411
H     -2.850211    0.014873    2.600674
H     -1.001747   -1.434916    2.138166
H     -2.366633   -2.146771    1.289167

