%nprocshared=8
%mem=8GB
%chk= 0.chk
# freq b3lyp/6-31g(d)

good luck!

0 1
O      1.216136   -0.000000    0.000000
C      0.000000    0.000000    0.000000
C     -0.849700   -1.268441    0.000394
C     -1.746817   -1.261576    1.261902
C     -1.744356   -1.255516   -1.264869
C     -2.637906    0.001160   -1.255007
C     -1.746631    1.259567   -1.261886
C     -0.848229    1.269824    0.000394
C     -1.743962    1.250161    1.264109
C     -2.649706   -0.009050    1.281445
N     -3.529630   -0.089683    2.453837
C     -3.521879   -0.006274    0.008368
H     -0.179933   -2.134135    0.001521
H     -1.123592   -1.284491    2.167366
H     -2.375900   -2.159825    1.282765
H     -1.120196   -1.272912   -2.167846
H     -2.360764   -2.164207   -1.282327
H     -3.276191    0.001616   -2.147830
H     -1.125150    1.281688   -2.166528
H     -2.364368    2.167882   -1.275106
H     -0.178108    2.135466    0.002885
H     -1.122055    1.269738    2.170257
H     -2.368620    2.154953    1.284475
H     -4.122493    0.740523    2.491447
H     -2.966137   -0.068730    3.305059
H     -4.174430   -0.887907    0.023068
H     -4.177009    0.877555    0.014535


