33
-375683.56629190216
O      1.216213   -0.000000   -0.000000
C      0.000000    0.000000    0.000000
C     -0.849576   -1.267960   -0.000180
C     -1.744759   -1.254955    1.262150
C     -1.736252   -1.264996   -1.266482
C     -2.628143   -0.011828   -1.250204
C     -1.742788    1.249835   -1.264585
C     -0.849298    1.268345   -0.000180
C     -1.738392    1.265354    1.269767
C     -2.650962    0.005130    1.304769
N     -3.532690   -0.077313    2.498971
C     -2.846600   -0.053909    3.789292
C     -4.655216    0.856506    2.532745
C     -3.510505   -0.002442    0.014481
H     -0.179546   -2.133565    0.013164
H     -2.379191   -2.149907    1.284191
H     -1.098134   -1.298156    2.144927
H     -1.112168   -1.281691   -2.169601
H     -2.350854   -2.175068   -1.282157
H     -3.276629   -0.011741   -2.135836
H     -2.364851    2.155047   -1.283652
H     -1.119172    1.269986   -2.167883
H     -0.178696    2.133807   -0.003400
H     -1.100273    1.296866    2.161360
H     -2.349900    2.177457    1.282010
H     -3.566553   -0.318183    4.571862
H     -2.416924    0.929804    4.055710
H     -2.044953   -0.793917    3.826098
H     -5.240179    0.657215    3.436995
H     -4.360529    1.923180    2.562539
H     -5.321748    0.708410    1.680816
H     -4.149361    0.886906   -0.022308
H     -4.173173   -0.877797    0.032337

