30
-364119.5956437047
O      1.219781    0.000000   -0.000000
C      0.000000    0.000000    0.000000
C     -0.929970   -1.239549    0.019435
C     -0.489222   -2.436826   -0.879432
C     -1.582583   -3.524879   -0.848120
C      0.814853   -3.046589   -0.323610
C     -0.257941   -1.980646   -2.333861
C     -2.350982   -0.660913   -0.238567
C     -2.204770    0.837765   -0.084501
C     -3.192769    1.823426   -0.067332
C     -2.805700    3.160513    0.048820
C     -1.451592    3.521536    0.144077
C     -0.464379    2.540783    0.128558
C     -0.860883    1.204836    0.019435
H     -0.897005   -1.596018    1.060990
H     -1.254639   -4.405511   -1.413519
H     -1.790888   -3.849522    0.179181
H     -2.524859   -3.183069   -1.291096
H      1.618387   -2.307874   -0.298409
H      0.666218   -3.422184    0.697130
H      1.132030   -3.892983   -0.945358
H     -1.156752   -1.528942   -2.771854
H      0.555657   -1.250645   -2.395541
H      0.013770   -2.837677   -2.961455
H     -3.099989   -1.075921    0.445469
H     -2.697292   -0.895632   -1.253091
H     -4.245466    1.561998   -0.144749
H     -3.565928    3.937404    0.064937
H     -1.180416    4.569898    0.233024
H      0.591118    2.786713    0.203540

