%nprocshared=10
%mem=12GB
%chk= 1.chk
# freq b3lyp/6-31g(d)

good luck!

0 1
O      1.215755    0.000000   -0.000000
C      0.000000    0.000000    0.000000
C     -0.812211   -1.291310    0.004274
C     -1.893037   -1.294066    1.119387
C     -2.715159   -2.572184    1.103342
C     -3.531765   -2.904653    0.011240
C     -4.275843   -4.080517    0.001488
C     -4.216066   -4.954019    1.091406
C     -5.056750   -6.200555    1.095524
F     -6.321601   -5.953310    1.513103
F     -5.156646   -6.741251   -0.140232
F     -4.551532   -7.149142    1.914921
C     -3.411419   -4.639384    2.187060
C     -2.670038   -3.458713    2.186447
C     -2.760687   -0.019246    1.030700
C     -1.902552    1.251486    1.106131
C     -0.823108    1.280998    0.004274
H     -1.307270   -1.382777   -0.973992
H     -0.126794   -2.136983    0.109663
H     -1.363359   -1.259794    2.081954
H     -3.586396   -2.241411   -0.848027
H     -4.895333   -4.327265   -0.854907
H     -3.356830   -5.318295    3.031502
H     -2.040204   -3.225306    3.041412
H     -3.328013   -0.024857    0.089033
H     -3.500596   -0.024159    1.839966
H     -2.536453    2.142346    1.026255
H     -1.414543    1.303258    2.089138
H     -1.315485    1.367663   -0.976618
H     -0.145695    2.132611    0.113790


