34
-352525.8259864906
O      1.217656   -0.000000   -0.000000
C      0.000000    0.000000    0.000000
C     -0.816453   -1.288675   -0.003278
C     -1.367332   -1.573289   -1.414828
C     -1.954428   -1.225210    1.059652
C     -1.377714   -1.413020    2.480667
N     -2.755075   -0.008189    0.832658
C     -4.174056    0.060404    1.297255
C     -4.949583    0.972285    0.317991
C     -4.838219   -1.327551    1.239718
C     -4.326275    0.618171    2.734272
C     -1.973607    1.213978    1.014102
C     -0.818286    1.279580   -0.003278
H     -0.122750   -2.092310    0.268786
H     -2.143637   -0.851701   -1.684845
H     -0.570351   -1.534896   -2.165483
H     -1.811142   -2.575366   -1.448441
H     -2.601022   -2.081347    0.856250
H     -0.834004   -2.363012    2.540196
H     -2.170007   -1.435879    3.235185
H     -0.673166   -0.620393    2.756024
H     -4.568164    1.998355    0.309217
H     -4.880889    0.577193   -0.700690
H     -6.007057    1.024930    0.601283
H     -5.908087   -1.219916    1.446318
H     -4.734086   -1.779342    0.247075
H     -4.433081   -2.020641    1.984210
H     -3.910690    1.627309    2.824436
H     -3.825928   -0.018798    3.470480
H     -5.386000    0.675683    3.009267
H     -2.618836    2.081873    0.862678
H     -1.558508    1.314712    2.032235
H     -0.153507    2.125675    0.196112
H     -1.245320    1.408117   -1.007261

