25
-278522.00370938977
O      1.215339    0.000000   -0.000000
C      0.000000    0.000000    0.000000
C     -0.825558   -1.274054    0.035493
C     -2.083023   -1.191604   -0.851008
C     -3.002909   -2.397350   -0.632871
C     -2.813994    0.134153   -0.598126
N     -1.943753    1.276807   -0.873849
C     -2.648038    2.562844   -0.861025
C     -3.605475    2.749047   -2.039096
C     -0.797044    1.302303    0.035493
H     -0.182648   -2.120493   -0.225802
H     -1.142222   -1.415425    1.082561
H     -1.759002   -1.178908   -1.900453
H     -3.870798   -2.361147   -1.301892
H     -3.375250   -2.430270    0.399110
H     -2.471950   -3.336660   -0.824616
H     -3.685192    0.190380   -1.257298
H     -3.197606    0.155661    0.445836
H     -3.189618    2.715174    0.094841
H     -1.881974    3.345850   -0.909121
H     -4.461204    2.067070   -1.998690
H     -4.003959    3.769747   -2.036195
H     -3.080771    2.584200   -2.985822
H     -1.106795    1.469450    1.092694
H     -0.120852    2.116415   -0.239706

