25
-278522.08035593806
O      1.215284   -0.000000    0.000000
C      0.000000    0.000000    0.000000
C     -0.825164   -1.273953    0.035151
C     -2.078164   -1.191176   -0.857401
C     -2.997276   -2.398926   -0.647933
C     -2.810598    0.132537   -0.601589
N     -1.943717    1.279468   -0.871355
C     -2.684659    2.544441   -0.860840
C     -1.906531    3.713596   -1.467145
C     -0.794822    1.304333    0.035151
H     -1.146754   -1.413916    1.080909
H     -0.181283   -2.120699   -0.222554
H     -1.748860   -1.174006   -1.905168
H     -2.464420   -3.336627   -0.842180
H     -3.862995   -2.360617   -1.319602
H     -3.372912   -2.436954    0.382658
H     -3.201571    0.143940    0.439523
H     -3.679133    0.200947   -1.266967
H     -3.594502    2.386177   -1.452170
H     -3.016745    2.807035    0.164654
H     -1.548404    3.454215   -2.468917
H     -1.043120    4.003776   -0.859650
H     -2.557404    4.591333   -1.547381
H     -0.109344    2.109208   -0.235613
H     -1.108179    1.473435    1.091405

