%nprocshared=10
%mem=12GB
%chk= 0.chk
# freq b3lyp/6-31g(d)

good luck!

0 1
O      1.214877    0.000000   -0.000000
C      0.000000    0.000000    0.000000
C     -0.846059   -1.275381    0.002096
C     -2.335467   -0.901665   -0.113456
C     -2.745886   -0.077346    1.142561
C     -4.218072    0.251296    1.143905
C     -5.097323   -0.234974    2.020961
C     -1.780666    1.178651    1.266781
C     -2.471697    2.493424    1.525192
C     -2.257119    3.255953    2.598197
C     -0.862878    1.253988    0.002096
C     -1.709957    1.251300   -1.294566
C     -2.523327   -0.071772   -1.400440
H     -0.520239   -1.913574   -0.829371
H     -0.634628   -1.834545    0.924003
H     -2.950896   -1.807507   -0.157896
H     -2.565644   -0.711806    2.019633
H     -4.582062    0.910277    0.356022
H     -6.154634    0.010810    1.968731
H     -4.792527   -0.894928    2.831108
H     -1.124205    0.999817    2.127268
H     -3.172387    2.844384    0.768487
H     -1.568766    2.955726    3.385954
H     -2.763006    4.208126    2.733684
H     -0.216685    2.134442    0.054211
H     -1.050490    1.376033   -2.160212
H     -2.374235    2.122607   -1.289828
H     -3.584644    0.133279   -1.574249
H     -2.182278   -0.664612   -2.257763


