28
-303190.176407221
O      1.216571   -0.000000   -0.000000
C      0.000000    0.000000    0.000000
C     -0.812928   -1.289736   -0.002031
C     -1.906106   -1.288443   -1.096308
C     -2.740494   -2.577339   -1.008243
N     -3.765329   -2.696956   -2.046168
C     -3.203235   -3.001218   -3.356511
C     -4.780576   -3.677763   -1.682907
C     -2.770455   -0.021435   -0.992245
C     -1.920614    1.252977   -1.083325
C     -0.820193    1.283470   -0.002031
H     -0.123279   -2.132538   -0.112678
H     -1.298612   -1.382704    0.982937
H     -1.389822   -1.266454   -2.067532
H     -3.253612   -2.581693   -0.037195
H     -2.060470   -3.454574   -1.007182
H     -2.503263   -2.220052   -3.666819
H     -4.007912   -3.039086   -4.098550
H     -2.666957   -3.971124   -3.382012
H     -4.380796   -4.706456   -1.580970
H     -5.563379   -3.696709   -2.449194
H     -5.244601   -3.398085   -0.731008
H     -3.533629   -0.037362   -1.776847
H     -3.310725   -0.035184   -0.032429
H     -1.450837    1.308628   -2.075279
H     -2.553070    2.143880   -0.989091
H     -0.140577    2.131881   -0.124626
H     -1.295527    1.375769    0.986953

