28
-303188.9334770984
O      1.216999   -0.000000    0.000000
C      0.000000    0.000000    0.000000
C     -0.817450   -1.287350    0.001189
C     -1.896024   -1.299934    1.113967
C     -1.222560   -1.510851    2.486330
N     -2.143777   -1.459637    3.620983
C     -3.043946   -2.605504    3.666502
C     -1.425770   -1.318668    4.881966
C     -2.749321   -0.016656    1.050502
C     -1.902724    1.263728    1.102259
C     -0.820917    1.282447    0.001189
H     -1.318788   -1.362715   -0.975226
H     -0.130570   -2.135636    0.087688
H     -2.552683   -2.157450    0.918194
H     -0.469679   -0.728308    2.641981
H     -0.662928   -2.468845    2.459288
H     -3.721079   -2.503272    4.521215
H     -2.509176   -3.571366    3.766542
H     -3.657204   -2.649935    2.761703
H     -2.143179   -1.212696    5.703220
H     -0.770176   -2.181795    5.112178
H     -0.803055   -0.418070    4.856519
H     -3.464894   -0.018083    1.878809
H     -3.330265   -0.026662    0.116677
H     -1.422605    1.351642    2.084919
H     -2.547020    2.144881    0.997557
H     -1.313535    1.361997   -0.980417
H     -0.141085    2.133693    0.102373

