23
-314130.0988036975
O      1.206370   -0.000000    0.000000
C      0.000000    0.000000    0.000000
C     -1.013289   -1.158674   -0.007656
C     -1.777836   -0.792706   -1.308517
C     -1.777836    0.792705   -1.308517
C     -3.275797    1.140274   -1.389486
O     -3.975975   -0.000000   -0.897744
C     -3.275796   -1.140275   -1.389486
C     -1.013289    1.158674   -0.007656
C     -1.835672    0.785588    1.250284
C     -1.835672   -0.785588    1.250284
H     -0.576444   -2.158478   -0.001052
H     -1.238816   -1.195858   -2.171821
H     -1.238816    1.195858   -2.171821
H     -3.573988    2.000470   -0.783558
H     -3.558583    1.340248   -2.436076
H     -3.558583   -1.340249   -2.436076
H     -3.573989   -2.000470   -0.783558
H     -0.576445    2.158478   -0.001053
H     -2.849710    1.190454    1.224982
H     -1.344354    1.180638    2.145595
H     -1.344353   -1.180638    2.145595
H     -2.849710   -1.190454    1.224983

