%nprocshared=10
%mem=12GB
%chk= 1.chk
# freq b3lyp/6-31g(d)

good luck!

0 1
C     -3.894335   -1.429112    0.623287
C     -2.839015   -0.939088    1.641605
C     -1.440230   -1.601677    1.390180
C     -1.468886   -3.123954    1.624357
C     -1.904317   -3.459167    3.050636
C     -3.257042   -2.828393    3.410636
C     -3.280367   -1.304953    3.117261
C     -4.655791   -0.735908    3.532628
C     -5.005405   -1.056700    4.993507
C     -5.012345   -2.572051    5.331491
C     -6.230287   -3.235415    4.668330
C     -3.658990   -3.179035    4.865954
C     -2.650439   -2.763069    5.965765
C     -3.474187   -2.578692    7.268263
C     -4.982837   -2.713375    6.895242
C     -5.673530   -3.957508    7.527707
C     -5.828027   -3.759923    9.047088
C     -5.006484   -5.315396    7.246508
C     -0.782764   -1.301894    0.009412
C      0.000000    0.000000    0.000000
C     -0.763764    1.321618    0.009412
C     -2.279257    1.254303    0.225679
C     -2.730482    0.612847    1.555145
O      1.218224    0.000000   -0.000000
H     -3.564893   -1.296907   -0.411645
H     -4.828309   -0.867779    0.730665
H     -4.133639   -2.489041    0.747229
H     -0.764697   -1.189498    2.157323
H     -0.467228   -3.532115    1.439713
H     -2.134890   -3.606326    0.895374
H     -1.954198   -4.548050    3.189092
H     -1.134327   -3.094431    3.744856
H     -4.013739   -3.295774    2.762046
H     -2.527174   -0.833284    3.769021
H     -5.436140   -1.134080    2.872313
H     -4.681074    0.352099    3.410438
H     -4.285735   -0.541380    5.644236
H     -5.988790   -0.630871    5.237045
H     -6.243025   -3.066385    3.586514
H     -6.245076   -4.318760    4.823188
H     -7.167143   -2.827885    5.068703
H     -3.751563   -4.273449    4.900335
H     -1.860134   -3.511253    6.086926
H     -2.146393   -1.827127    5.700047
H     -3.186945   -3.319025    8.021391
H     -3.269731   -1.602055    7.719536
H     -5.534183   -1.855692    7.305731
H     -6.690556   -4.002901    7.114964
H     -6.367265   -2.832964    9.276442
H     -4.854696   -3.710845    9.550848
H     -6.385769   -4.591712    9.493824
H     -4.974601   -5.555709    6.179551
H     -5.562525   -6.118295    7.745574
H     -3.978263   -5.351441    7.626052
H     -0.060317   -2.090256   -0.220858
H     -1.534509   -1.300519   -0.788792
H     -0.292721    1.953383    0.773906
H     -0.542013    1.811905   -0.949476
H     -2.762309    0.757547   -0.624594
H     -2.654501    2.285365    0.207521
H     -3.716832    1.026649    1.787277
H     -2.061927    0.964665    2.355897


