27
-292384.74376769934
O      1.216603    0.000000    0.000000
C      0.000000    0.000000    0.000000
C     -0.818291   -1.284447   -0.001291
C     -1.919811   -1.282341   -1.083853
C     -2.777131   -2.557940   -1.020776
C     -3.883658   -2.560145   -2.085692
C     -4.754824   -1.299187   -1.988481
C     -3.901752   -0.023672   -2.054140
C     -2.793018   -0.010802   -0.987172
C     -1.923715    1.253627   -1.076982
C     -0.819416    1.283971   -0.001291
H     -0.135819   -2.132141   -0.119930
H     -1.296540   -1.379519    0.986900
H     -1.421825   -1.261420   -2.067683
H     -2.135824   -3.441968   -1.134148
H     -3.233058   -2.630816   -0.021293
H     -4.502654   -3.460430   -1.983781
H     -3.425423   -2.608121   -3.084456
H     -5.310360   -1.315169   -1.039138
H     -5.505975   -1.292173   -2.788372
H     -3.439019    0.052912   -3.049963
H     -4.536306    0.865181   -1.938725
H     -3.279470   -0.019545    0.003918
H     -2.550119    2.150216   -0.986188
H     -1.459256    1.299452   -2.072622
H     -1.288093    1.380897    0.990292
H     -0.140615    2.132002   -0.131040

