41
-438858.44249312836
O      1.220488    0.000000    0.000000
C      0.000000    0.000000    0.000000
C     -0.744033   -1.331674   -0.035544
C     -1.014112   -1.827712   -1.491225
C     -2.126144   -1.036313   -2.176809
C     -3.391469   -1.891640   -2.223935
C     -3.077515   -3.120860   -1.348131
C     -1.553281   -3.279196   -1.491731
C     -2.037512    0.209854   -2.658198
C     -0.793900    1.070087   -2.709750
C     -0.515209    1.960076   -1.447964
C     -1.232746    3.279773   -1.765498
C     -0.836532    3.513845   -3.231062
C     -0.854318    2.105622   -3.890776
C      0.259671    1.912886   -4.924368
C     -0.743057    1.347020   -0.035544
C     -2.191778    1.334027    0.474126
H     -1.687863   -1.277797    0.516646
H     -0.091239   -2.058933    0.459151
H     -0.064160   -1.759056   -2.035687
H     -4.285399   -1.347138   -1.898042
H     -3.580384   -2.211574   -3.258859
H     -3.630278   -4.015120   -1.653855
H     -3.339940   -2.921309   -0.301473
H     -1.103454   -3.901170   -0.710449
H     -1.322293   -3.748471   -2.457200
H     -2.943827    0.653110   -3.076037
H      0.069034    0.405720   -2.845427
H      0.562765    2.168479   -1.484425
H     -2.320867    3.164221   -1.675995
H     -0.933715    4.099707   -1.101462
H      0.179271    3.930237   -3.270011
H     -1.492015    4.222587   -3.749425
H     -1.814255    1.977087   -4.407353
H      1.249029    1.998750   -4.457026
H      0.200487    2.669586   -5.716523
H      0.198286    0.926429   -5.399382
H     -0.163526    1.981167    0.648896
H     -2.866602    0.779373   -0.181268
H     -2.245307    0.891177    1.476123
H     -2.570884    2.358301    0.555558

