27
-580786.38922065
O      1.217017    0.000000    0.000000
C      0.000000    0.000000    0.000000
C     -0.806938   -1.292048    0.000297
C     -1.892112   -1.288256    1.092753
C     -2.755386   -0.026530    1.059999
Cl    -3.840836   -0.068896   -0.435349
C     -1.907482    1.252527    1.109796
C     -2.730271    2.551946    1.128536
C     -1.832318    3.791594    1.253201
C     -0.775495    3.828615    0.139820
C      0.061913    2.542900    0.118844
C     -0.819706    1.291610    0.000297
H     -0.118797   -2.132759    0.124069
H     -1.290767   -1.392540   -0.980921
H     -2.521195   -2.180143    1.010588
H     -1.415282   -1.324263    2.082785
H     -3.466977   -0.030552    1.889406
H     -1.380845    1.184845    2.077838
H     -3.450958    2.516526    1.956726
H     -3.317275    2.616391    0.203735
H     -1.329189    3.783285    2.231439
H     -2.448329    4.698935    1.227114
H     -0.119760    4.698813    0.267642
H     -1.277282    3.955787   -0.830775
H      0.657702    2.471292    1.038886
H      0.783244    2.558201   -0.704781
H     -1.353838    1.317324   -0.963871

