30
-504339.0744619514
O      1.205764    0.000000   -0.000000
C      0.000000    0.000000    0.000000
C     -1.000611   -1.170412    0.011693
C     -1.844409   -0.805568   -1.258363
C     -3.239687   -1.393695   -1.196552
O     -4.192595   -0.900215   -0.627561
O     -3.281124   -2.591967   -1.813362
C     -4.546395   -3.274055   -1.756732
C     -1.770991    0.778910   -1.287842
C     -3.072679    1.528117   -1.526199
O     -3.519707    2.414616   -0.834446
O     -3.628676    1.129753   -2.692394
C     -4.893499    1.736605   -3.007014
C     -1.019074    1.147533    0.011693
C     -1.856047    0.759770    1.258861
C     -1.763771   -0.807140    1.307739
H     -0.563800   -2.168894   -0.019161
H     -1.350263   -1.219088   -2.140281
H     -5.325904   -2.671591   -2.229940
H     -4.829644   -3.471447   -0.719564
H     -4.398515   -4.207653   -2.299665
H     -1.136959    1.043277   -2.144283
H     -5.634907    1.469404   -2.249701
H     -4.797801    2.824234   -3.050996
H     -5.176400    1.335464   -3.980771
H     -0.600693    2.153399    0.017576
H     -2.883648    1.111623    1.168219
H     -1.422857    1.209768    2.157335
H     -2.748064   -1.275472    1.367946
H     -1.181018   -1.142822    2.172412

