30
-504338.2137915602
O      1.205751    0.000000   -0.000000
C      0.000000    0.000000    0.000000
C     -1.004324   -1.166436    0.007385
C     -1.850310   -0.800576   -1.261480
C     -3.268349   -1.335954   -1.191819
O     -4.158619   -0.878157   -0.503375
O     -3.409280   -2.434173   -1.958037
C     -4.717721   -3.032051   -1.943849
C     -1.743421    0.781038   -1.308054
C     -3.032305    1.494902   -1.685587
O     -3.712576    1.171478   -2.635331
O     -3.281595    2.570367   -0.914683
C     -4.464701    3.312243   -1.264599
C     -1.017453    1.151687    0.007385
C     -1.871601    0.762961    1.242030
C     -1.753210   -0.800721    1.310735
H     -0.568635   -2.165528   -0.023407
H     -1.374767   -1.232950   -2.143695
H     -4.654069   -3.887381   -2.616670
H     -5.464008   -2.316259   -2.296922
H     -4.981109   -3.354922   -0.933122
H     -1.069036    1.019452   -2.142080
H     -4.515205    4.133263   -0.549206
H     -5.347758    2.673695   -1.185485
H     -4.388125    3.693349   -2.286111
H     -0.592408    2.154672    0.018995
H     -1.470700    1.233298    2.145101
H     -2.907539    1.083755    1.125568
H     -1.146340   -1.113008    2.167930
H     -2.727617   -1.283609    1.393894

