30
-504339.07446095534
O      1.205764   -0.000000   -0.000000
C      0.000000    0.000000    0.000000
C     -1.019073   -1.147533    0.011693
C     -1.770991   -0.778909   -1.287842
C     -3.072678   -1.528117   -1.526198
O     -3.519705   -2.414617   -0.834445
O     -3.628675   -1.129754   -2.692393
C     -4.893495   -1.736610   -3.007018
C     -1.844409    0.805568   -1.258363
C     -3.239689    1.393694   -1.196548
O     -4.192597    0.900211   -0.627559
O     -3.281127    2.591968   -1.813354
C     -4.546398    3.274053   -1.756727
C     -1.000611    1.170413    0.011693
C     -1.763770    0.807141    1.307740
C     -1.856046   -0.759770    1.258861
H     -0.600692   -2.153399    0.017576
H     -1.136959   -1.043276   -2.144283
H     -5.634907   -1.469412   -2.249709
H     -4.797793   -2.824239   -3.050998
H     -5.176392   -1.335471   -3.980777
H     -1.350266    1.219089   -2.140281
H     -5.325903    2.671593   -2.229948
H     -4.829656    3.471434   -0.719559
H     -4.398516    4.207657   -2.299649
H     -0.563799    2.168894   -0.019161
H     -2.748063    1.275472    1.367946
H     -1.181017    1.142822    2.172412
H     -2.883648   -1.111623    1.168219
H     -1.422856   -1.209768    2.157335

