32
-459008.5556301653
O      1.211704   -0.000000   -0.000000
C      0.000000    0.000000    0.000000
C     -0.856947   -1.281410    0.013533
C     -0.387694   -2.252596    1.103007
C     -2.357001   -0.846346    0.121167
C     -2.484247    0.039573    1.352121
C     -1.667348    1.182743    1.299744
C     -1.637938    2.078744    2.364804
C     -2.446491    1.843011    3.481964
C     -3.265684    0.713934    3.532592
C     -3.283542   -0.194130    2.467670
C     -0.857971    1.288862    0.013533
C     -1.814302    1.162594   -1.163112
C     -2.636790    0.024916   -1.094616
C     -3.564495   -0.226489   -2.101211
C     -3.671325    0.660863   -3.178310
C     -2.848534    1.786260   -3.248151
C     -1.911403    2.038984   -2.240370
H     -0.708145   -1.758590   -0.964769
H      0.686686   -2.430501    1.000455
H     -0.573321   -1.848762    2.103718
H     -0.910481   -3.211880    1.017779
H     -3.015078   -1.719613    0.167030
H     -0.997607    2.956429    2.324222
H     -2.435536    2.543337    4.312703
H     -3.891295    0.536446    4.403196
H     -3.916872   -1.077201    2.510977
H     -0.215476    2.170131   -0.029921
H     -4.201492   -1.106649   -2.050953
H     -4.397609    0.470551   -3.963909
H     -2.935261    2.470731   -4.087616
H     -1.268490    2.914164   -2.293978

