25
-278520.9980830709
O      1.217234   -0.000000    0.000000
C      0.000000    0.000000    0.000000
C     -0.814846   -1.292736   -0.009941
C     -1.365446   -1.572728   -1.422995
C     -1.947721   -1.222383    1.048680
C     -1.384394   -1.390692    2.475577
N     -2.745747   -0.003827    0.821687
C     -4.013263    0.016459    1.535609
C     -1.986522    1.232231    0.986244
C     -0.814800    1.284999   -0.009941
H     -0.119646   -2.094930    0.261972
H     -2.140678   -0.849881   -1.692121
H     -0.567441   -1.535351   -2.172489
H     -1.811928   -2.573289   -1.457565
H     -2.628008   -2.063986    0.859234
H     -0.924102   -2.379268    2.582035
H     -0.613663   -0.647245    2.708637
H     -2.172740   -1.308777    3.231458
H     -4.561486   -0.910706    1.335237
H     -3.918104    0.125447    2.632027
H     -4.620993    0.853073    1.171995
H     -2.663034    2.073848    0.797378
H     -1.604198    1.366306    2.015975
H     -1.223405    1.412391   -1.021799
H     -0.147881    2.127475    0.194680

