25
-278520.97773629037
O      1.218495    0.000000   -0.000000
C      0.000000    0.000000    0.000000
C     -0.823413   -1.289952   -0.023261
C      0.076985   -2.523663   -0.122450
C     -1.893774   -1.192878   -1.171527
C     -2.762376   -2.450963   -1.271151
N     -2.711513    0.027154   -1.096773
C     -3.710823    0.068005   -0.034728
C     -1.873741    1.218944   -1.151987
C     -0.810841    1.283813   -0.023261
H     -1.380971   -1.324114    0.927112
H      0.883446   -2.466917    0.613166
H      0.548028   -2.586348   -1.110423
H     -0.486964   -3.445033    0.049681
H     -1.333066   -1.109863   -2.115054
H     -2.165748   -3.305324   -1.601991
H     -3.217637   -2.717698   -0.310399
H     -3.562010   -2.291480   -2.001947
H     -4.274715    1.002854   -0.122105
H     -4.420846   -0.754582   -0.155078
H     -3.308984    0.016123    0.994171
H     -1.360103    1.230822   -2.122659
H     -2.514187    2.107317   -1.117999
H     -0.131445    2.131843   -0.153032
H     -1.318414    1.401369    0.944637

