25
-278521.886811102
O      1.217002    0.000000   -0.000000
C      0.000000    0.000000    0.000000
C     -0.831306   -1.285242   -0.007290
C      0.073708   -2.517140   -0.108333
C     -1.935624   -1.216218   -1.110359
C     -2.837478   -2.454813   -1.046024
N     -2.718879    0.027987   -0.963655
C     -3.859710    0.114491   -1.872885
C     -1.875815    1.214545   -1.111177
C     -0.813663    1.277658   -0.007290
H     -1.369365   -1.297528    0.954322
H     -0.457922   -3.435535    0.154061
H      0.926740   -2.408210    0.565418
H      0.476916   -2.628304   -1.121519
H     -1.418519   -1.220889   -2.093993
H     -3.528112   -2.502563   -1.892167
H     -3.423829   -2.453465   -0.119330
H     -2.238105   -3.367427   -1.074280
H     -3.577825    0.026939   -2.940486
H     -4.598228   -0.657730   -1.648484
H     -4.348037    1.084341   -1.734426
H     -2.514749    2.102361   -1.052253
H     -1.377981    1.243406   -2.102198
H     -0.142921    2.131091   -0.141277
H     -1.321548    1.376443    0.961573

