%nprocshared=8
%mem=4GB
%chk= 0.chk
# freq b3lyp/6-31g(d)

good luck!

0 1
O      1.217669   -0.000000   -0.000000
C      0.000000    0.000000    0.000000
C     -0.825104   -1.288086   -0.009632
C      0.050812   -2.540034   -0.034875
C     -1.837422   -1.235008   -1.180077
C     -2.667962    0.056475   -1.184255
C     -1.815824    1.349150   -1.195802
C     -1.040864    1.489209   -2.521746
C     -2.733744    2.571291   -1.022980
C     -0.812375    1.288343   -0.009632
H     -1.414553   -1.274638    0.922809
H      0.739511   -2.557057    0.814623
H     -0.567876   -3.443887   -0.001021
H      0.657908   -2.571713   -0.945790
H     -1.290832   -1.339351   -2.126769
H     -2.503029   -2.104905   -1.115317
H     -3.309380    0.069063   -0.290409
H     -3.345090    0.059587   -2.048909
H     -1.729136    1.494105   -3.375724
H     -0.321227    0.677821   -2.674558
H     -0.476480    2.428934   -2.540508
H     -2.152721    3.501029   -0.995319
H     -3.310899    2.507543   -0.092334
H     -3.445406    2.647011   -1.854472
H     -0.119230    2.135723   -0.030997
H     -1.378490    1.340355    0.932786


