26
-338822.0358456085
O      1.215633    0.000000   -0.000000
C      0.000000    0.000000    0.000000
C     -0.859276   -1.259347    0.014538
C     -1.731815   -1.234546    1.297496
C     -1.779143   -1.240656   -1.232452
C     -2.655803    0.027802   -1.212406
C     -1.756593    1.276739   -1.232400
O     -1.004248    1.244933   -2.441734
C     -0.840106    1.276446    0.014538
C     -1.711617    1.281658    1.296667
C     -2.613594    0.031443    1.310505
C     -3.521769    0.047940    0.063635
H     -0.197515   -2.131241    0.005963
H     -1.092462   -1.261861    2.189743
H     -2.358477   -2.136221    1.324718
H     -1.179480   -1.266459   -2.147069
H     -2.415063   -2.136102   -1.227303
H     -3.292819    0.049779   -2.105022
H     -2.389541    2.180629   -1.203943
H     -0.307237    1.917357   -2.382782
H     -0.164201    2.141053   -0.003027
H     -2.321220    2.195121    1.322694
H     -1.066173    1.303038    2.183915
H     -3.230561    0.038354    2.218211
H     -4.190123   -0.823161    0.069667
H     -4.162731    0.940256    0.077072

