26
-302438.65023693454
O      1.215800    0.000000   -0.000000
C      0.000000    0.000000    0.000000
C     -0.808934   -1.284902    0.031937
C     -2.014401   -1.210588   -0.916349
C     -2.795874    0.080396   -0.681046
N     -1.950806    1.254212   -0.896109
C     -0.804204    1.312366    0.031937
C      0.095208    2.515333   -0.276149
C     -0.697144    3.825881   -0.260581
C     -1.908455    3.718711   -1.193126
C     -2.744725    2.487025   -0.843642
H     -0.141989   -2.123578   -0.187848
H     -1.171363   -1.411871    1.064353
H     -2.668372   -2.077922   -0.767607
H     -1.670239   -1.232165   -1.957229
H     -3.637145    0.140516   -1.381151
H     -3.230492    0.071729    0.341804
H     -1.174226    1.406990    1.081443
H      0.916753    2.535290    0.445931
H      0.547191    2.361359   -1.263396
H     -0.052800    4.663615   -0.553843
H     -1.042596    4.036966    0.762387
H     -2.537277    4.615318   -1.126747
H     -1.568970    3.632850   -2.233455
H     -3.196187    2.623821    0.162114
H     -3.574529    2.379842   -1.552467

