%nprocshared=10
%mem=12GB
%chk= 0.chk
# freq b3lyp/6-31g(d)

good luck!

0 1
O      1.219171    0.000000    0.000000
C      0.000000    0.000000    0.000000
C     -0.766034   -1.316791   -0.028409
C     -1.524451   -1.547313   -1.363056
C     -2.815767   -0.770393   -1.505248
C     -4.024036   -1.465029   -1.642250
C     -5.239403   -0.796074   -1.787254
C     -5.257141    0.596979   -1.798364
C     -4.060445    1.299967   -1.658418
C     -2.832976    0.641436   -1.506281
C     -1.560943    1.454550   -1.371110
C     -0.775490    1.318722   -0.028409
C     -1.635068    1.537622    1.246921
C     -0.798935    1.324724    2.520402
C     -2.267081    2.938316    1.265183
H     -0.025704   -2.109419    0.114130
H     -1.483579   -1.361920    0.800774
H     -1.748009   -2.616764   -1.440527
H     -0.843096   -1.319912   -2.195623
H     -4.008197   -2.552784   -1.640970
H     -6.161686   -1.360650   -1.894524
H     -6.193266    1.135976   -1.916772
H     -4.075277    2.387442   -1.677387
H     -0.866835    1.202407   -2.185995
H     -1.805989    2.512250   -1.511371
H      0.005771    2.089526   -0.041916
H     -2.451499    0.802390    1.243248
H     -0.384525    0.312341    2.583838
H      0.044675    2.025194    2.557076
H     -1.410791    1.489581    3.414663
H     -1.495347    3.717544    1.213583
H     -2.961399    3.091814    0.433622
H     -2.829906    3.090642    2.193589


