25
-278520.52301730413
O      1.217049   -0.000000    0.000000
C      0.000000    0.000000    0.000000
C     -0.821512   -1.283351   -0.021636
C     -1.897733   -1.271349   -1.133048
C     -2.859654   -2.456840   -1.006322
C     -2.641639    0.080482   -1.108601
N     -1.774970    1.260046   -1.171458
C     -1.141609    1.447692   -2.476620
C     -0.841741    1.289599   -0.021636
C      0.012389    2.551666    0.038947
H     -0.142000   -2.136285   -0.119403
H     -1.326638   -1.369247    0.954320
H     -1.379278   -1.355501   -2.098806
H     -3.589065   -2.465257   -1.825071
H     -3.417301   -2.412068   -0.061701
H     -2.319995   -3.410613   -1.029425
H     -3.230515    0.147872   -0.180738
H     -3.353835    0.132370   -1.941562
H     -0.690810    2.442257   -2.531015
H     -1.916924    1.394151   -3.248260
H     -0.359003    0.710480   -2.730401
H     -1.485376    1.261091    0.872225
H      0.535508    2.599178    0.998475
H     -0.621727    3.438102   -0.061196
H      0.777261    2.564312   -0.741757

