%nprocshared=10
%mem=12GB
%chk= 0.chk
# freq b3lyp/6-31g(d)

good luck!

0 1
O      1.214988   -0.000000    0.000000
C      0.000000    0.000000    0.000000
C     -0.845045   -1.275690    0.003481
C     -2.338256   -0.901070    0.027625
C     -2.620332   -0.081423    1.321685
C     -4.093792    0.163080    1.528510
C     -4.806367   -0.343356    2.535797
C     -1.720496    1.229166    1.310596
C     -2.471948    2.523735    1.494768
C     -2.242278    3.390727    2.481797
C     -0.861607    1.254880    0.003481
C     -1.764942    1.210410   -1.253396
C     -2.653330   -0.068245   -1.231871
H     -0.589581   -1.866650   -0.886345
H     -0.559085   -1.883562    0.872093
H     -2.955336   -1.806771    0.041968
H     -2.284203   -0.695052    2.167322
H     -4.606564    0.774774    0.786755
H     -4.348639   -0.958238    3.308604
H     -5.873075   -0.159402    2.632200
H     -1.021470    1.153176    2.152184
H     -3.233331    2.767478    0.754658
H     -1.494989    3.199640    3.249592
H     -2.794223    4.323225    2.564019
H     -0.212618    2.134841   -0.003746
H     -1.134880    1.233777   -2.149526
H     -2.377888    2.117195   -1.290651
H     -2.467890   -0.680302   -2.122577
H     -3.716589    0.192936   -1.258391


